*
.PARAM PHI0=2.067833848e-15
.PARAM B0=1
.PARAM IC0=0.0001
.PARAM ICRS=0.0006859904418
.PARAM B0RS=6.859904418
.PARAM RSHEET=2
.PARAM LSHEET=1.13e-12
.PARAM LP=2e-13
.PARAM LPTL=2e-12
.PARAM IC=2.5
.PARAM LB=2e-12
.PARAM BIASCOEF=0.7
.PARAM TCLOCK=6.1e-11
.PARAM OS=3.0499999999999997e-12
.PARAM STEP=0.08
.MODEL JJMIT JJ(RTYPE=1, VG=2.8MV, CAP=0.07PF, R0=160, RN=16, ICRIT=0.1MA)
.MODEL JJMIT JJ(RTYPE=1, VG=2.8MV, CAP=0.07PF, R0=160, RN=16, ICRIT=0.1MA)
.TRAN 1E-12 2000E-12
R_S0 S0 0  1
R_S1 S1 0  1
R_S2 S2 0  1
R_S3 S3 0  1
R_S4 S4 0  1
I_VEC|A0 0 A0  PWL(0 0 1.408e-11 0 1.708e-11 0.0007 2.008e-11 0 1.3608e-10 0 1.3908e-10 0.0007 1.4208e-10 0 1.9708e-10 0 2.0008e-10 0.0007 2.0308e-10 0 2.5808e-10 0 2.6108e-10 0.0007 2.6408e-10 0 3.1908e-10 0 3.2208e-10 0.0007 3.2508e-10 0 4.4108e-10 0 4.4408e-10 0.0007 4.4708e-10 0 5.0208e-10 0 5.0508e-10 0.0007 5.0808e-10 0 6.2408e-10 0 6.2708e-10 0.0007 6.3008e-10 0 6.8508e-10 0 6.8808e-10 0.0007 6.9108e-10 0)
I_VEC|A1 0 A1  PWL(0 0 1.9708e-10 0 2.0008e-10 0.0007 2.0308e-10 0 2.5808e-10 0 2.6108e-10 0.0007 2.6408e-10 0 6.8508e-10 0 6.8808e-10 0.0007 6.9108e-10 0)
I_VEC|A2 0 A2  PWL(0 0 7.508e-11 0 7.808e-11 0.0007 8.108e-11 0 2.5808e-10 0 2.6108e-10 0.0007 2.6408e-10 0 3.8008e-10 0 3.8308e-10 0.0007 3.8608e-10 0 5.0208e-10 0 5.0508e-10 0.0007 5.0808e-10 0 6.8508e-10 0 6.8808e-10 0.0007 6.9108e-10 0)
I_VEC|A3 0 A3  PWL(0 0 3.8008e-10 0 3.8308e-10 0.0007 3.8608e-10 0 5.0208e-10 0 5.0508e-10 0.0007 5.0808e-10 0 6.8508e-10 0 6.8808e-10 0.0007 6.9108e-10 0)
I_VEC|B0 0 B0  PWL(0 0 1.408e-11 0 1.708e-11 0.0007 2.008e-11 0 1.3608e-10 0 1.3908e-10 0.0007 1.4208e-10 0 3.1908e-10 0 3.2208e-10 0.0007 3.2508e-10 0 4.4108e-10 0 4.4408e-10 0.0007 4.4708e-10 0 6.8508e-10 0 6.8808e-10 0.0007 6.9108e-10 0)
I_VEC|B1 0 B1  PWL(0 0 1.408e-11 0 1.708e-11 0.0007 2.008e-11 0 1.3608e-10 0 1.3908e-10 0.0007 1.4208e-10 0 1.9708e-10 0 2.0008e-10 0.0007 2.0308e-10 0 2.5808e-10 0 2.6108e-10 0.0007 2.6408e-10 0 5.6308e-10 0 5.6608e-10 0.0007 5.6908e-10 0 6.8508e-10 0 6.8808e-10 0.0007 6.9108e-10 0)
I_VEC|B2 0 B2  PWL(0 0 1.408e-11 0 1.708e-11 0.0007 2.008e-11 0 7.508e-11 0 7.808e-11 0.0007 8.108e-11 0 1.3608e-10 0 1.3908e-10 0.0007 1.4208e-10 0 2.5808e-10 0 2.6108e-10 0.0007 2.6408e-10 0 3.1908e-10 0 3.2208e-10 0.0007 3.2508e-10 0 4.4108e-10 0 4.4408e-10 0.0007 4.4708e-10 0 5.0208e-10 0 5.0508e-10 0.0007 5.0808e-10 0 5.6308e-10 0 5.6608e-10 0.0007 5.6908e-10 0 6.2408e-10 0 6.2708e-10 0.0007 6.3008e-10 0 6.8508e-10 0 6.8808e-10 0.0007 6.9108e-10 0)
I_VEC|B3 0 B3  PWL(0 0 1.408e-11 0 1.708e-11 0.0007 2.008e-11 0 7.508e-11 0 7.808e-11 0.0007 8.108e-11 0 1.9708e-10 0 2.0008e-10 0.0007 2.0308e-10 0 4.4108e-10 0 4.4408e-10 0.0007 4.4708e-10 0 6.2408e-10 0 6.2708e-10 0.0007 6.3008e-10 0 6.8508e-10 0 6.8808e-10 0.0007 6.9108e-10 0)
IT00|T 0 T00  PWL(0 0 9.2e-12 0 1.22e-11 0.0021 1.52e-11 0 7.02e-11 0 7.32e-11 0.0021 7.62e-11 0 1.312e-10 0 1.342e-10 0.0021 1.372e-10 0 1.922e-10 0 1.952e-10 0.0021 1.982e-10 0 2.532e-10 0 2.562e-10 0.0021 2.592e-10 0 3.142e-10 0 3.172e-10 0.0021 3.202e-10 0 3.752e-10 0 3.782e-10 0.0021 3.812e-10 0 4.362e-10 0 4.392e-10 0.0021 4.422e-10 0 4.972e-10 0 5.002e-10 0.0021 5.032e-10 0 5.582e-10 0 5.612e-10 0.0021 5.642e-10 0 6.192e-10 0 6.222e-10 0.0021 6.252e-10 0 6.802e-10 0 6.832e-10 0.0021 6.862e-10 0 7.412e-10 0 7.442e-10 0.0021 7.472e-10 0 8.022e-10 0 8.052e-10 0.0021 8.082e-10 0 8.632e-10 0 8.662e-10 0.0021 8.692e-10 0 9.242e-10 0 9.272e-10 0.0021 9.302e-10 0 9.852e-10 0 9.882e-10 0.0021 9.912e-10 0 1.0462e-09 0 1.0492e-09 0.0021 1.0522e-09 0 1.1072e-09 0 1.1102e-09 0.0021 1.1132e-09 0 1.1682e-09 0 1.1712e-09 0.0021 1.1742e-09 0 1.2292e-09 0 1.2322e-09 0.0021 1.2352e-09 0 1.2902e-09 0 1.2932e-09 0.0021 1.2962e-09 0 1.3512e-09 0 1.3542e-09 0.0021 1.3572e-09 0 1.4122e-09 0 1.4152e-09 0.0021 1.4182e-09 0 1.4732e-09 0 1.4762e-09 0.0021 1.4792e-09 0 1.5342e-09 0 1.5372e-09 0.0021 1.5402e-09 0 1.5952e-09 0 1.5982e-09 0.0021 1.6012e-09 0 1.6562e-09 0 1.6592e-09 0.0021 1.6622e-09 0 1.7172e-09 0 1.7202e-09 0.0021 1.7232e-09 0 1.7782e-09 0 1.7812e-09 0.0021 1.7842e-09 0 1.8392e-09 0 1.8422e-09 0.0021 1.8452e-09 0 1.9002e-09 0 1.9032e-09 0.0021 1.9062e-09 0 1.9612e-09 0 1.9642e-09 0.0021 1.9672e-09 0 2.0222e-09 0 2.0252e-09 0.0021 2.0282e-09 0 2.0832e-09 0 2.0862e-09 0.0021 2.0892e-09 0 2.1442e-09 0 2.1472e-09 0.0021 2.1502e-09 0 2.2052e-09 0 2.2082e-09 0.0021 2.2112e-09 0 2.2662e-09 0 2.2692e-09 0.0021 2.2722e-09 0 2.3272e-09 0 2.3302e-09 0.0021 2.3332e-09 0 2.3882e-09 0 2.3912e-09 0.0021 2.3942e-09 0 2.4492e-09 0 2.4522e-09 0.0021 2.4552e-09 0 2.5102e-09 0 2.5132e-09 0.0021 2.5162e-09 0 2.5712e-09 0 2.5742e-09 0.0021 2.5772e-09 0 2.6322e-09 0 2.6352e-09 0.0021 2.6382e-09 0 2.6932e-09 0 2.6962e-09 0.0021 2.6992e-09 0 2.7542e-09 0 2.7572e-09 0.0021 2.7602e-09 0 2.8152e-09 0 2.8182e-09 0.0021 2.8212e-09 0 2.8762e-09 0 2.8792e-09 0.0021 2.8822e-09 0 2.9372e-09 0 2.9402e-09 0.0021 2.9432e-09 0 2.9982e-09 0 3.0012e-09 0.0021 3.0042e-09 0 3.0592e-09 0 3.0622e-09 0.0021 3.0652e-09 0 3.1202e-09 0 3.1232e-09 0.0021 3.1262e-09 0 3.1812e-09 0 3.1842e-09 0.0021 3.1872e-09 0 3.2422e-09 0 3.2452e-09 0.0021 3.2482e-09 0 3.3032e-09 0 3.3062e-09 0.0021 3.3092e-09 0 3.3642e-09 0 3.3672e-09 0.0021 3.3702e-09 0 3.4252e-09 0 3.4282e-09 0.0021 3.4312e-09 0 3.4862e-09 0 3.4892e-09 0.0021 3.4922e-09 0 3.5472e-09 0 3.5502e-09 0.0021 3.5532e-09 0 3.6082e-09 0 3.6112e-09 0.0021 3.6142e-09 0 3.6692e-09 0 3.6722e-09 0.0021 3.6752e-09 0 3.7302e-09 0 3.7332e-09 0.0021 3.7362e-09 0 3.7912e-09 0 3.7942e-09 0.0021 3.7972e-09 0 3.8522e-09 0 3.8552e-09 0.0021 3.8582e-09 0 3.9132e-09 0 3.9162e-09 0.0021 3.9192e-09 0 3.9742e-09 0 3.9772e-09 0.0021 3.9802e-09 0 4.0352e-09 0 4.0382e-09 0.0021 4.0412e-09 0 4.0962e-09 0 4.0992e-09 0.0021 4.1022e-09 0 4.1572e-09 0 4.1602e-09 0.0021 4.1632e-09 0 4.2182e-09 0 4.2212e-09 0.0021 4.2242e-09 0 4.2792e-09 0 4.2822e-09 0.0021 4.2852e-09 0 4.3402e-09 0 4.3432e-09 0.0021 4.3462e-09 0 4.4012e-09 0 4.4042e-09 0.0021 4.4072e-09 0 4.4622e-09 0 4.4652e-09 0.0021 4.4682e-09 0 4.5232e-09 0 4.5262e-09 0.0021 4.5292e-09 0 4.5842e-09 0 4.5872e-09 0.0021 4.5902e-09 0 4.6452e-09 0 4.6482e-09 0.0021 4.6512e-09 0 4.7062e-09 0 4.7092e-09 0.0021 4.7122e-09 0 4.7672e-09 0 4.7702e-09 0.0021 4.7732e-09 0 4.8282e-09 0 4.8312e-09 0.0021 4.8342e-09 0 4.8892e-09 0 4.8922e-09 0.0021 4.8952e-09 0 4.9502e-09 0 4.9532e-09 0.0021 4.9562e-09 0 5.0112e-09 0 5.0142e-09 0.0021 5.0172e-09 0 5.0722e-09 0 5.0752e-09 0.0021 5.0782e-09 0 5.1332e-09 0 5.1362e-09 0.0021 5.1392e-09 0 5.1942e-09 0 5.1972e-09 0.0021 5.2002e-09 0 5.2552e-09 0 5.2582e-09 0.0021 5.2612e-09 0 5.3162e-09 0 5.3192e-09 0.0021 5.3222e-09 0 5.3772e-09 0 5.3802e-09 0.0021 5.3832e-09 0 5.4382e-09 0 5.4412e-09 0.0021 5.4442e-09 0 5.4992e-09 0 5.5022e-09 0.0021 5.5052e-09 0 5.5602e-09 0 5.5632e-09 0.0021 5.5662e-09 0 5.6212e-09 0 5.6242e-09 0.0021 5.6272e-09 0 5.6822e-09 0 5.6852e-09 0.0021 5.6882e-09 0 5.7432e-09 0 5.7462e-09 0.0021 5.7492e-09 0 5.8042e-09 0 5.8072e-09 0.0021 5.8102e-09 0 5.8652e-09 0 5.8682e-09 0.0021 5.8712e-09 0 5.9262e-09 0 5.9292e-09 0.0021 5.9322e-09 0 5.9872e-09 0 5.9902e-09 0.0021 5.9932e-09 0 6.0482e-09 0 6.0512e-09 0.0021 6.0542e-09 0 6.1092e-09 0 6.1122e-09 0.0021 6.1152e-09 0 6.1702e-09 0 6.1732e-09 0.0021 6.1762e-09 0 6.2312e-09 0 6.2342e-09 0.0021 6.2372e-09 0 6.2922e-09 0 6.2952e-09 0.0021 6.2982e-09 0 6.3532e-09 0 6.3562e-09 0.0021 6.3592e-09 0 6.4142e-09 0 6.4172e-09 0.0021 6.4202e-09 0 6.4752e-09 0 6.4782e-09 0.0021 6.4812e-09 0 6.5362e-09 0 6.5392e-09 0.0021 6.5422e-09 0 6.5972e-09 0 6.6002e-09 0.0021 6.6032e-09 0 6.6582e-09 0 6.6612e-09 0.0021 6.6642e-09 0 6.7192e-09 0 6.7222e-09 0.0021 6.7252e-09 0 6.7802e-09 0 6.7832e-09 0.0021 6.7862e-09 0 6.8412e-09 0 6.8442e-09 0.0021 6.8472e-09 0 6.9022e-09 0 6.9052e-09 0.0021 6.9082e-09 0 6.9632e-09 0 6.9662e-09 0.0021 6.9692e-09 0 7.0242e-09 0 7.0272e-09 0.0021 7.0302e-09 0 7.0852e-09 0 7.0882e-09 0.0021 7.0912e-09 0 7.1462e-09 0 7.1492e-09 0.0021 7.1522e-09 0 7.2072e-09 0 7.2102e-09 0.0021 7.2132e-09 0 7.2682e-09 0 7.2712e-09 0.0021 7.2742e-09 0 7.3292e-09 0 7.3322e-09 0.0021 7.3352e-09 0 7.3902e-09 0 7.3932e-09 0.0021 7.3962e-09 0 7.4512e-09 0 7.4542e-09 0.0021 7.4572e-09 0 7.5122e-09 0 7.5152e-09 0.0021 7.5182e-09 0 7.5732e-09 0 7.5762e-09 0.0021 7.5792e-09 0 7.6342e-09 0 7.6372e-09 0.0021 7.6402e-09 0 7.6952e-09 0 7.6982e-09 0.0021 7.7012e-09 0 7.7562e-09 0 7.7592e-09 0.0021 7.7622e-09 0 7.8172e-09 0 7.8202e-09 0.0021 7.8232e-09 0 7.8782e-09 0 7.8812e-09 0.0021 7.8842e-09 0 7.9392e-09 0 7.9422e-09 0.0021 7.9452e-09 0 8.0002e-09 0 8.0032e-09 0.0021 8.0062e-09 0 8.0612e-09 0 8.0642e-09 0.0021 8.0672e-09 0 8.1222e-09 0 8.1252e-09 0.0021 8.1282e-09 0 8.1832e-09 0 8.1862e-09 0.0021 8.1892e-09 0 8.2442e-09 0 8.2472e-09 0.0021 8.2502e-09 0 8.3052e-09 0 8.3082e-09 0.0021 8.3112e-09 0 8.3662e-09 0 8.3692e-09 0.0021 8.3722e-09 0 8.4272e-09 0 8.4302e-09 0.0021 8.4332e-09 0 8.4882e-09 0 8.4912e-09 0.0021 8.4942e-09 0 8.5492e-09 0 8.5522e-09 0.0021 8.5552e-09 0 8.6102e-09 0 8.6132e-09 0.0021 8.6162e-09 0 8.6712e-09 0 8.6742e-09 0.0021 8.6772e-09 0 8.7322e-09 0 8.7352e-09 0.0021 8.7382e-09 0 8.7932e-09 0 8.7962e-09 0.0021 8.7992e-09 0 8.8542e-09 0 8.8572e-09 0.0021 8.8602e-09 0 8.9152e-09 0 8.9182e-09 0.0021 8.9212e-09 0 8.9762e-09 0 8.9792e-09 0.0021 8.9822e-09 0 9.0372e-09 0 9.0402e-09 0.0021 9.0432e-09 0 9.0982e-09 0 9.1012e-09 0.0021 9.1042e-09 0 9.1592e-09 0 9.1622e-09 0.0021 9.1652e-09 0 9.2202e-09 0 9.2232e-09 0.0021 9.2262e-09 0 9.2812e-09 0 9.2842e-09 0.0021 9.2872e-09 0 9.3422e-09 0 9.3452e-09 0.0021 9.3482e-09 0 9.4032e-09 0 9.4062e-09 0.0021 9.4092e-09 0 9.4642e-09 0 9.4672e-09 0.0021 9.4702e-09 0 9.5252e-09 0 9.5282e-09 0.0021 9.5312e-09 0 9.5862e-09 0 9.5892e-09 0.0021 9.5922e-09 0 9.6472e-09 0 9.6502e-09 0.0021 9.6532e-09 0 9.7082e-09 0 9.7112e-09 0.0021 9.7142e-09 0 9.7692e-09 0 9.7722e-09 0.0021 9.7752e-09 0 9.8302e-09 0 9.8332e-09 0.0021 9.8362e-09 0 9.8912e-09 0 9.8942e-09 0.0021 9.8972e-09 0 9.9522e-09 0 9.9552e-09 0.0021 9.9582e-09 0 1.00132e-08 0 1.00162e-08 0.0021 1.00192e-08 0 1.00742e-08 0 1.00772e-08 0.0021 1.00802e-08 0 1.01352e-08 0 1.01382e-08 0.0021 1.01412e-08 0 1.01962e-08 0 1.01992e-08 0.0021 1.02022e-08 0 1.02572e-08 0 1.02602e-08 0.0021 1.02632e-08 0 1.03182e-08 0 1.03212e-08 0.0021 1.03242e-08 0 1.03792e-08 0 1.03822e-08 0.0021 1.03852e-08 0 1.04402e-08 0 1.04432e-08 0.0021 1.04462e-08 0 1.05012e-08 0 1.05042e-08 0.0021 1.05072e-08 0 1.05622e-08 0 1.05652e-08 0.0021 1.05682e-08 0 1.06232e-08 0 1.06262e-08 0.0021 1.06292e-08 0 1.06842e-08 0 1.06872e-08 0.0021 1.06902e-08 0 1.07452e-08 0 1.07482e-08 0.0021 1.07512e-08 0 1.08062e-08 0 1.08092e-08 0.0021 1.08122e-08 0 1.08672e-08 0 1.08702e-08 0.0021 1.08732e-08 0 1.09282e-08 0 1.09312e-08 0.0021 1.09342e-08 0 1.09892e-08 0 1.09922e-08 0.0021 1.09952e-08 0 1.10502e-08 0 1.10532e-08 0.0021 1.10562e-08 0 1.11112e-08 0 1.11142e-08 0.0021 1.11172e-08 0 1.11722e-08 0 1.11752e-08 0.0021 1.11782e-08 0 1.12332e-08 0 1.12362e-08 0.0021 1.12392e-08 0 1.12942e-08 0 1.12972e-08 0.0021 1.13002e-08 0 1.13552e-08 0 1.13582e-08 0.0021 1.13612e-08 0 1.14162e-08 0 1.14192e-08 0.0021 1.14222e-08 0 1.14772e-08 0 1.14802e-08 0.0021 1.14832e-08 0 1.15382e-08 0 1.15412e-08 0.0021 1.15442e-08 0 1.15992e-08 0 1.16022e-08 0.0021 1.16052e-08 0 1.16602e-08 0 1.16632e-08 0.0021 1.16662e-08 0 1.17212e-08 0 1.17242e-08 0.0021 1.17272e-08 0 1.17822e-08 0 1.17852e-08 0.0021 1.17882e-08 0 1.18432e-08 0 1.18462e-08 0.0021 1.18492e-08 0 1.19042e-08 0 1.19072e-08 0.0021 1.19102e-08 0 1.19652e-08 0 1.19682e-08 0.0021 1.19712e-08 0 1.20262e-08 0 1.20292e-08 0.0021 1.20322e-08 0 1.20872e-08 0 1.20902e-08 0.0021 1.20932e-08 0 1.21482e-08 0 1.21512e-08 0.0021 1.21542e-08 0 1.22092e-08 0 1.22122e-08 0.0021 1.22152e-08 0 1.22702e-08 0 1.22732e-08 0.0021 1.22762e-08 0 1.23312e-08 0 1.23342e-08 0.0021 1.23372e-08 0 1.23922e-08 0 1.23952e-08 0.0021 1.23982e-08 0 1.24532e-08 0 1.24562e-08 0.0021 1.24592e-08 0 1.25142e-08 0 1.25172e-08 0.0021 1.25202e-08 0 1.25752e-08 0 1.25782e-08 0.0021 1.25812e-08 0 1.26362e-08 0 1.26392e-08 0.0021 1.26422e-08 0 1.26972e-08 0 1.27002e-08 0.0021 1.27032e-08 0 1.27582e-08 0 1.27612e-08 0.0021 1.27642e-08 0 1.28192e-08 0 1.28222e-08 0.0021 1.28252e-08 0 1.28802e-08 0 1.28832e-08 0.0021 1.28862e-08 0 1.29412e-08 0 1.29442e-08 0.0021 1.29472e-08 0 1.30022e-08 0 1.30052e-08 0.0021 1.30082e-08 0 1.30632e-08 0 1.30662e-08 0.0021 1.30692e-08 0 1.31242e-08 0 1.31272e-08 0.0021 1.31302e-08 0 1.31852e-08 0 1.31882e-08 0.0021 1.31912e-08 0 1.32462e-08 0 1.32492e-08 0.0021 1.32522e-08 0 1.33072e-08 0 1.33102e-08 0.0021 1.33132e-08 0 1.33682e-08 0 1.33712e-08 0.0021 1.33742e-08 0 1.34292e-08 0 1.34322e-08 0.0021 1.34352e-08 0 1.34902e-08 0 1.34932e-08 0.0021 1.34962e-08 0 1.35512e-08 0 1.35542e-08 0.0021 1.35572e-08 0 1.36122e-08 0 1.36152e-08 0.0021 1.36182e-08 0 1.36732e-08 0 1.36762e-08 0.0021 1.36792e-08 0 1.37342e-08 0 1.37372e-08 0.0021 1.37402e-08 0 1.37952e-08 0 1.37982e-08 0.0021 1.38012e-08 0 1.38562e-08 0 1.38592e-08 0.0021 1.38622e-08 0 1.39172e-08 0 1.39202e-08 0.0021 1.39232e-08 0 1.39782e-08 0 1.39812e-08 0.0021 1.39842e-08 0 1.40392e-08 0 1.40422e-08 0.0021 1.40452e-08 0 1.41002e-08 0 1.41032e-08 0.0021 1.41062e-08 0 1.41612e-08 0 1.41642e-08 0.0021 1.41672e-08 0 1.42222e-08 0 1.42252e-08 0.0021 1.42282e-08 0 1.42832e-08 0 1.42862e-08 0.0021 1.42892e-08 0 1.43442e-08 0 1.43472e-08 0.0021 1.43502e-08 0 1.44052e-08 0 1.44082e-08 0.0021 1.44112e-08 0 1.44662e-08 0 1.44692e-08 0.0021 1.44722e-08 0 1.45272e-08 0 1.45302e-08 0.0021 1.45332e-08 0 1.45882e-08 0 1.45912e-08 0.0021 1.45942e-08 0 1.46492e-08 0 1.46522e-08 0.0021 1.46552e-08 0 1.47102e-08 0 1.47132e-08 0.0021 1.47162e-08 0 1.47712e-08 0 1.47742e-08 0.0021 1.47772e-08 0 1.48322e-08 0 1.48352e-08 0.0021 1.48382e-08 0 1.48932e-08 0 1.48962e-08 0.0021 1.48992e-08 0 1.49542e-08 0 1.49572e-08 0.0021 1.49602e-08 0 1.50152e-08 0 1.50182e-08 0.0021 1.50212e-08 0 1.50762e-08 0 1.50792e-08 0.0021 1.50822e-08 0 1.51372e-08 0 1.51402e-08 0.0021 1.51432e-08 0 1.51982e-08 0 1.52012e-08 0.0021 1.52042e-08 0 1.52592e-08 0 1.52622e-08 0.0021 1.52652e-08 0 1.53202e-08 0 1.53232e-08 0.0021 1.53262e-08 0 1.53812e-08 0 1.53842e-08 0.0021 1.53872e-08 0 1.54422e-08 0 1.54452e-08 0.0021 1.54482e-08 0 1.55032e-08 0 1.55062e-08 0.0021 1.55092e-08 0 1.55642e-08 0 1.55672e-08 0.0021 1.55702e-08 0 1.56252e-08 0 1.56282e-08 0.0021 1.56312e-08 0 1.56862e-08 0 1.56892e-08 0.0021 1.56922e-08 0 1.57472e-08 0 1.57502e-08 0.0021 1.57532e-08 0 1.58082e-08 0 1.58112e-08 0.0021 1.58142e-08 0 1.58692e-08 0 1.58722e-08 0.0021 1.58752e-08 0 1.59302e-08 0 1.59332e-08 0.0021 1.59362e-08 0 1.59912e-08 0 1.59942e-08 0.0021 1.59972e-08 0 1.60522e-08 0 1.60552e-08 0.0021 1.60582e-08 0 1.61132e-08 0 1.61162e-08 0.0021 1.61192e-08 0 1.61742e-08 0 1.61772e-08 0.0021 1.61802e-08 0 1.62352e-08 0 1.62382e-08 0.0021 1.62412e-08 0 1.62962e-08 0 1.62992e-08 0.0021 1.63022e-08 0 1.63572e-08 0 1.63602e-08 0.0021 1.63632e-08 0 1.64182e-08 0 1.64212e-08 0.0021 1.64242e-08 0 1.64792e-08 0 1.64822e-08 0.0021 1.64852e-08 0 1.65402e-08 0 1.65432e-08 0.0021 1.65462e-08 0 1.66012e-08 0 1.66042e-08 0.0021 1.66072e-08 0 1.66622e-08 0 1.66652e-08 0.0021 1.66682e-08 0 1.67232e-08 0 1.67262e-08 0.0021 1.67292e-08 0 1.67842e-08 0 1.67872e-08 0.0021 1.67902e-08 0 1.68452e-08 0 1.68482e-08 0.0021 1.68512e-08 0 1.69062e-08 0 1.69092e-08 0.0021 1.69122e-08 0 1.69672e-08 0 1.69702e-08 0.0021 1.69732e-08 0 1.70282e-08 0 1.70312e-08 0.0021 1.70342e-08 0 1.70892e-08 0 1.70922e-08 0.0021 1.70952e-08 0 1.71502e-08 0 1.71532e-08 0.0021 1.71562e-08 0 1.72112e-08 0 1.72142e-08 0.0021 1.72172e-08 0 1.72722e-08 0 1.72752e-08 0.0021 1.72782e-08 0 1.73332e-08 0 1.73362e-08 0.0021 1.73392e-08 0 1.73942e-08 0 1.73972e-08 0.0021 1.74002e-08 0 1.74552e-08 0 1.74582e-08 0.0021 1.74612e-08 0 1.75162e-08 0 1.75192e-08 0.0021 1.75222e-08 0 1.75772e-08 0 1.75802e-08 0.0021 1.75832e-08 0 1.76382e-08 0 1.76412e-08 0.0021 1.76442e-08 0 1.76992e-08 0 1.77022e-08 0.0021 1.77052e-08 0 1.77602e-08 0 1.77632e-08 0.0021 1.77662e-08 0 1.78212e-08 0 1.78242e-08 0.0021 1.78272e-08 0 1.78822e-08 0 1.78852e-08 0.0021 1.78882e-08 0 1.79432e-08 0 1.79462e-08 0.0021 1.79492e-08 0 1.80042e-08 0 1.80072e-08 0.0021 1.80102e-08 0 1.80652e-08 0 1.80682e-08 0.0021 1.80712e-08 0 1.81262e-08 0 1.81292e-08 0.0021 1.81322e-08 0 1.81872e-08 0 1.81902e-08 0.0021 1.81932e-08 0 1.82482e-08 0 1.82512e-08 0.0021 1.82542e-08 0 1.83092e-08 0 1.83122e-08 0.0021 1.83152e-08 0 1.83702e-08 0 1.83732e-08 0.0021 1.83762e-08 0 1.84312e-08 0 1.84342e-08 0.0021 1.84372e-08 0 1.84922e-08 0 1.84952e-08 0.0021 1.84982e-08 0 1.85532e-08 0 1.85562e-08 0.0021 1.85592e-08 0 1.86142e-08 0 1.86172e-08 0.0021 1.86202e-08 0 1.86752e-08 0 1.86782e-08 0.0021 1.86812e-08 0 1.87362e-08 0 1.87392e-08 0.0021 1.87422e-08 0 1.87972e-08 0 1.88002e-08 0.0021 1.88032e-08 0 1.88582e-08 0 1.88612e-08 0.0021 1.88642e-08 0 1.89192e-08 0 1.89222e-08 0.0021 1.89252e-08 0 1.89802e-08 0 1.89832e-08 0.0021 1.89862e-08 0 1.90412e-08 0 1.90442e-08 0.0021 1.90472e-08 0 1.91022e-08 0 1.91052e-08 0.0021 1.91082e-08 0 1.91632e-08 0 1.91662e-08 0.0021 1.91692e-08 0 1.92242e-08 0 1.92272e-08 0.0021 1.92302e-08 0 1.92852e-08 0 1.92882e-08 0.0021 1.92912e-08 0 1.93462e-08 0 1.93492e-08 0.0021 1.93522e-08 0 1.94072e-08 0 1.94102e-08 0.0021 1.94132e-08 0 1.94682e-08 0 1.94712e-08 0.0021 1.94742e-08 0 1.95292e-08 0 1.95322e-08 0.0021 1.95352e-08 0 1.95902e-08 0 1.95932e-08 0.0021 1.95962e-08 0 1.96512e-08 0 1.96542e-08 0.0021 1.96572e-08 0 1.97122e-08 0 1.97152e-08 0.0021 1.97182e-08 0 1.97732e-08 0 1.97762e-08 0.0021 1.97792e-08 0 1.98342e-08 0 1.98372e-08 0.0021 1.98402e-08 0 1.98952e-08 0 1.98982e-08 0.0021 1.99012e-08 0 1.99562e-08 0 1.99592e-08 0.0021 1.99622e-08 0 2.00172e-08 0 2.00202e-08 0.0021 2.00232e-08 0 2.00782e-08 0 2.00812e-08 0.0021 2.00842e-08 0 2.01392e-08 0 2.01422e-08 0.0021 2.01452e-08 0 2.02002e-08 0 2.02032e-08 0.0021 2.02062e-08 0 2.02612e-08 0 2.02642e-08 0.0021 2.02672e-08 0 2.03222e-08 0 2.03252e-08 0.0021 2.03282e-08 0 2.03832e-08 0 2.03862e-08 0.0021 2.03892e-08 0 2.04442e-08 0 2.04472e-08 0.0021 2.04502e-08 0 2.05052e-08 0 2.05082e-08 0.0021 2.05112e-08 0 2.05662e-08 0 2.05692e-08 0.0021 2.05722e-08 0 2.06272e-08 0 2.06302e-08 0.0021 2.06332e-08 0 2.06882e-08 0 2.06912e-08 0.0021 2.06942e-08 0 2.07492e-08 0 2.07522e-08 0.0021 2.07552e-08 0 2.08102e-08 0 2.08132e-08 0.0021 2.08162e-08 0 2.08712e-08 0 2.08742e-08 0.0021 2.08772e-08 0 2.09322e-08 0 2.09352e-08 0.0021 2.09382e-08 0 2.09932e-08 0 2.09962e-08 0.0021 2.09992e-08 0 2.10542e-08 0 2.10572e-08 0.0021 2.10602e-08 0 2.11152e-08 0 2.11182e-08 0.0021 2.11212e-08 0 2.11762e-08 0 2.11792e-08 0.0021 2.11822e-08 0 2.12372e-08 0 2.12402e-08 0.0021 2.12432e-08 0 2.12982e-08 0 2.13012e-08 0.0021 2.13042e-08 0 2.13592e-08 0 2.13622e-08 0.0021 2.13652e-08 0 2.14202e-08 0 2.14232e-08 0.0021 2.14262e-08 0 2.14812e-08 0 2.14842e-08 0.0021 2.14872e-08 0 2.15422e-08 0 2.15452e-08 0.0021 2.15482e-08 0 2.16032e-08 0 2.16062e-08 0.0021 2.16092e-08 0 2.16642e-08 0 2.16672e-08 0.0021 2.16702e-08 0 2.17252e-08 0 2.17282e-08 0.0021 2.17312e-08 0 2.17862e-08 0 2.17892e-08 0.0021 2.17922e-08 0 2.18472e-08 0 2.18502e-08 0.0021 2.18532e-08 0 2.19082e-08 0 2.19112e-08 0.0021 2.19142e-08 0 2.19692e-08 0 2.19722e-08 0.0021 2.19752e-08 0 2.20302e-08 0 2.20332e-08 0.0021 2.20362e-08 0 2.20912e-08 0 2.20942e-08 0.0021 2.20972e-08 0 2.21522e-08 0 2.21552e-08 0.0021 2.21582e-08 0 2.22132e-08 0 2.22162e-08 0.0021 2.22192e-08 0 2.22742e-08 0 2.22772e-08 0.0021 2.22802e-08 0 2.23352e-08 0 2.23382e-08 0.0021 2.23412e-08 0 2.23962e-08 0 2.23992e-08 0.0021 2.24022e-08 0 2.24572e-08 0 2.24602e-08 0.0021 2.24632e-08 0 2.25182e-08 0 2.25212e-08 0.0021 2.25242e-08 0 2.25792e-08 0 2.25822e-08 0.0021 2.25852e-08 0 2.26402e-08 0 2.26432e-08 0.0021 2.26462e-08 0 2.27012e-08 0 2.27042e-08 0.0021 2.27072e-08 0 2.27622e-08 0 2.27652e-08 0.0021 2.27682e-08 0 2.28232e-08 0 2.28262e-08 0.0021 2.28292e-08 0 2.28842e-08 0 2.28872e-08 0.0021 2.28902e-08 0 2.29452e-08 0 2.29482e-08 0.0021 2.29512e-08 0 2.30062e-08 0 2.30092e-08 0.0021 2.30122e-08 0 2.30672e-08 0 2.30702e-08 0.0021 2.30732e-08 0 2.31282e-08 0 2.31312e-08 0.0021 2.31342e-08 0 2.31892e-08 0 2.31922e-08 0.0021 2.31952e-08 0 2.32502e-08 0 2.32532e-08 0.0021 2.32562e-08 0 2.33112e-08 0 2.33142e-08 0.0021 2.33172e-08 0 2.33722e-08 0 2.33752e-08 0.0021 2.33782e-08 0 2.34332e-08 0 2.34362e-08 0.0021 2.34392e-08 0 2.34942e-08 0 2.34972e-08 0.0021 2.35002e-08 0 2.35552e-08 0 2.35582e-08 0.0021 2.35612e-08 0 2.36162e-08 0 2.36192e-08 0.0021 2.36222e-08 0 2.36772e-08 0 2.36802e-08 0.0021 2.36832e-08 0 2.37382e-08 0 2.37412e-08 0.0021 2.37442e-08 0 2.37992e-08 0 2.38022e-08 0.0021 2.38052e-08 0 2.38602e-08 0 2.38632e-08 0.0021 2.38662e-08 0 2.39212e-08 0 2.39242e-08 0.0021 2.39272e-08 0 2.39822e-08 0 2.39852e-08 0.0021 2.39882e-08 0 2.40432e-08 0 2.40462e-08 0.0021 2.40492e-08 0 2.41042e-08 0 2.41072e-08 0.0021 2.41102e-08 0 2.41652e-08 0 2.41682e-08 0.0021 2.41712e-08 0 2.42262e-08 0 2.42292e-08 0.0021 2.42322e-08 0 2.42872e-08 0 2.42902e-08 0.0021 2.42932e-08 0)