*
.PARAM PHI0=2.067833848e-15
.PARAM B0=1
.PARAM IC0=0.0001
.PARAM ICRS=0.0006859904418
.PARAM B0RS=6.859904418
.PARAM RSHEET=2
.PARAM LSHEET=1.13e-12
.PARAM LP=2e-13
.PARAM LPTL=2e-12
.PARAM IC=2.5
.PARAM LB=2e-12
.PARAM BIASCOEF=0.7
.PARAM GLOBAL_SCALE=1.0
.PARAM TCLOCK=1.2e-10
.PARAM OS=6e-12
.PARAM STEP=0.08
.MODEL JJMIT JJ(RTYPE=1, VG=2.8MV, CAP=0.07PF, R0=160, RN=16, ICRIT=0.1MA)
.MODEL JJMIT JJ(RTYPE=1, VG=2.8MV, CAP=0.07PF, R0=160, RN=16, ICRIT=0.1MA)
.TRAN 1E-12 2000E-12
R_S0 S0 0  1
R_S1 S1 0  1
R_S2 S2 0  1
R_S3 S3 0  1
R_S4 S4 0  1
I_VEC|A0 0 A0  PWL(0 0 3.06e-11 0 3.36e-11 0.0007 3.66e-11 0 2.706e-10 0 2.736e-10 0.0007 2.766e-10 0 3.906e-10 0 3.936e-10 0.0007 3.966e-10 0 5.106e-10 0 5.136e-10 0.0007 5.166e-10 0 6.306e-10 0 6.336e-10 0.0007 6.366e-10 0 8.706e-10 0 8.736e-10 0.0007 8.766e-10 0 9.906e-10 0 9.936e-10 0.0007 9.966e-10 0 1.2306e-09 0 1.2336e-09 0.0007 1.2366e-09 0 1.3506e-09 0 1.3536e-09 0.0007 1.3566e-09 0)
I_VEC|A1 0 A1  PWL(0 0 3.906e-10 0 3.936e-10 0.0007 3.966e-10 0 5.106e-10 0 5.136e-10 0.0007 5.166e-10 0 1.3506e-09 0 1.3536e-09 0.0007 1.3566e-09 0)
I_VEC|A2 0 A2  PWL(0 0 1.506e-10 0 1.536e-10 0.0007 1.566e-10 0 5.106e-10 0 5.136e-10 0.0007 5.166e-10 0 7.506e-10 0 7.536e-10 0.0007 7.566e-10 0 9.906e-10 0 9.936e-10 0.0007 9.966e-10 0 1.3506e-09 0 1.3536e-09 0.0007 1.3566e-09 0)
I_VEC|A3 0 A3  PWL(0 0 7.506e-10 0 7.536e-10 0.0007 7.566e-10 0 9.906e-10 0 9.936e-10 0.0007 9.966e-10 0 1.3506e-09 0 1.3536e-09 0.0007 1.3566e-09 0)
I_VEC|B0 0 B0  PWL(0 0 3.06e-11 0 3.36e-11 0.0007 3.66e-11 0 2.706e-10 0 2.736e-10 0.0007 2.766e-10 0 6.306e-10 0 6.336e-10 0.0007 6.366e-10 0 8.706e-10 0 8.736e-10 0.0007 8.766e-10 0 1.3506e-09 0 1.3536e-09 0.0007 1.3566e-09 0)
I_VEC|B1 0 B1  PWL(0 0 3.06e-11 0 3.36e-11 0.0007 3.66e-11 0 2.706e-10 0 2.736e-10 0.0007 2.766e-10 0 3.906e-10 0 3.936e-10 0.0007 3.966e-10 0 5.106e-10 0 5.136e-10 0.0007 5.166e-10 0 1.1106e-09 0 1.1136e-09 0.0007 1.1166e-09 0 1.3506e-09 0 1.3536e-09 0.0007 1.3566e-09 0)
I_VEC|B2 0 B2  PWL(0 0 3.06e-11 0 3.36e-11 0.0007 3.66e-11 0 1.506e-10 0 1.536e-10 0.0007 1.566e-10 0 2.706e-10 0 2.736e-10 0.0007 2.766e-10 0 5.106e-10 0 5.136e-10 0.0007 5.166e-10 0 6.306e-10 0 6.336e-10 0.0007 6.366e-10 0 8.706e-10 0 8.736e-10 0.0007 8.766e-10 0 9.906e-10 0 9.936e-10 0.0007 9.966e-10 0 1.1106e-09 0 1.1136e-09 0.0007 1.1166e-09 0 1.2306e-09 0 1.2336e-09 0.0007 1.2366e-09 0 1.3506e-09 0 1.3536e-09 0.0007 1.3566e-09 0)
I_VEC|B3 0 B3  PWL(0 0 3.06e-11 0 3.36e-11 0.0007 3.66e-11 0 1.506e-10 0 1.536e-10 0.0007 1.566e-10 0 3.906e-10 0 3.936e-10 0.0007 3.966e-10 0 8.706e-10 0 8.736e-10 0.0007 8.766e-10 0 1.2306e-09 0 1.2336e-09 0.0007 1.2366e-09 0 1.3506e-09 0 1.3536e-09 0.0007 1.3566e-09 0)
IT00|T 0 T00  PWL(0 0 2.1e-11 0 2.4e-11 0.0021 2.7e-11 0 1.41e-10 0 1.44e-10 0.0021 1.47e-10 0 2.61e-10 0 2.64e-10 0.0021 2.67e-10 0 3.81e-10 0 3.84e-10 0.0021 3.87e-10 0 5.01e-10 0 5.04e-10 0.0021 5.07e-10 0 6.21e-10 0 6.24e-10 0.0021 6.27e-10 0 7.41e-10 0 7.44e-10 0.0021 7.47e-10 0 8.61e-10 0 8.64e-10 0.0021 8.67e-10 0 9.81e-10 0 9.84e-10 0.0021 9.87e-10 0 1.101e-09 0 1.104e-09 0.0021 1.107e-09 0 1.221e-09 0 1.224e-09 0.0021 1.227e-09 0 1.341e-09 0 1.344e-09 0.0021 1.347e-09 0 1.461e-09 0 1.464e-09 0.0021 1.467e-09 0 1.581e-09 0 1.584e-09 0.0021 1.587e-09 0 1.701e-09 0 1.704e-09 0.0021 1.707e-09 0 1.821e-09 0 1.824e-09 0.0021 1.827e-09 0 1.941e-09 0 1.944e-09 0.0021 1.947e-09 0 2.061e-09 0 2.064e-09 0.0021 2.067e-09 0 2.181e-09 0 2.184e-09 0.0021 2.187e-09 0 2.301e-09 0 2.304e-09 0.0021 2.307e-09 0 2.421e-09 0 2.424e-09 0.0021 2.427e-09 0 2.541e-09 0 2.544e-09 0.0021 2.547e-09 0 2.661e-09 0 2.664e-09 0.0021 2.667e-09 0 2.781e-09 0 2.784e-09 0.0021 2.787e-09 0 2.901e-09 0 2.904e-09 0.0021 2.907e-09 0 3.021e-09 0 3.024e-09 0.0021 3.027e-09 0 3.141e-09 0 3.144e-09 0.0021 3.147e-09 0 3.261e-09 0 3.264e-09 0.0021 3.267e-09 0 3.381e-09 0 3.384e-09 0.0021 3.387e-09 0 3.501e-09 0 3.504e-09 0.0021 3.507e-09 0 3.621e-09 0 3.624e-09 0.0021 3.627e-09 0 3.741e-09 0 3.744e-09 0.0021 3.747e-09 0 3.861e-09 0 3.864e-09 0.0021 3.867e-09 0 3.981e-09 0 3.984e-09 0.0021 3.987e-09 0 4.101e-09 0 4.104e-09 0.0021 4.107e-09 0 4.221e-09 0 4.224e-09 0.0021 4.227e-09 0 4.341e-09 0 4.344e-09 0.0021 4.347e-09 0 4.461e-09 0 4.464e-09 0.0021 4.467e-09 0 4.581e-09 0 4.584e-09 0.0021 4.587e-09 0 4.701e-09 0 4.704e-09 0.0021 4.707e-09 0 4.821e-09 0 4.824e-09 0.0021 4.827e-09 0 4.941e-09 0 4.944e-09 0.0021 4.947e-09 0 5.061e-09 0 5.064e-09 0.0021 5.067e-09 0 5.181e-09 0 5.184e-09 0.0021 5.187e-09 0 5.301e-09 0 5.304e-09 0.0021 5.307e-09 0 5.421e-09 0 5.424e-09 0.0021 5.427e-09 0 5.541e-09 0 5.544e-09 0.0021 5.547e-09 0 5.661e-09 0 5.664e-09 0.0021 5.667e-09 0 5.781e-09 0 5.784e-09 0.0021 5.787e-09 0 5.901e-09 0 5.904e-09 0.0021 5.907e-09 0 6.021e-09 0 6.024e-09 0.0021 6.027e-09 0 6.141e-09 0 6.144e-09 0.0021 6.147e-09 0 6.261e-09 0 6.264e-09 0.0021 6.267e-09 0 6.381e-09 0 6.384e-09 0.0021 6.387e-09 0 6.501e-09 0 6.504e-09 0.0021 6.507e-09 0 6.621e-09 0 6.624e-09 0.0021 6.627e-09 0 6.741e-09 0 6.744e-09 0.0021 6.747e-09 0 6.861e-09 0 6.864e-09 0.0021 6.867e-09 0 6.981e-09 0 6.984e-09 0.0021 6.987e-09 0 7.101e-09 0 7.104e-09 0.0021 7.107e-09 0 7.221e-09 0 7.224e-09 0.0021 7.227e-09 0 7.341e-09 0 7.344e-09 0.0021 7.347e-09 0 7.461e-09 0 7.464e-09 0.0021 7.467e-09 0 7.581e-09 0 7.584e-09 0.0021 7.587e-09 0 7.701e-09 0 7.704e-09 0.0021 7.707e-09 0 7.821e-09 0 7.824e-09 0.0021 7.827e-09 0 7.941e-09 0 7.944e-09 0.0021 7.947e-09 0 8.061e-09 0 8.064e-09 0.0021 8.067e-09 0 8.181e-09 0 8.184e-09 0.0021 8.187e-09 0 8.301e-09 0 8.304e-09 0.0021 8.307e-09 0 8.421e-09 0 8.424e-09 0.0021 8.427e-09 0 8.541e-09 0 8.544e-09 0.0021 8.547e-09 0 8.661e-09 0 8.664e-09 0.0021 8.667e-09 0 8.781e-09 0 8.784e-09 0.0021 8.787e-09 0 8.901e-09 0 8.904e-09 0.0021 8.907e-09 0 9.021e-09 0 9.024e-09 0.0021 9.027e-09 0 9.141e-09 0 9.144e-09 0.0021 9.147e-09 0 9.261e-09 0 9.264e-09 0.0021 9.267e-09 0 9.381e-09 0 9.384e-09 0.0021 9.387e-09 0 9.501e-09 0 9.504e-09 0.0021 9.507e-09 0 9.621e-09 0 9.624e-09 0.0021 9.627e-09 0 9.741e-09 0 9.744e-09 0.0021 9.747e-09 0 9.861e-09 0 9.864e-09 0.0021 9.867e-09 0 9.981e-09 0 9.984e-09 0.0021 9.987e-09 0 1.0101e-08 0 1.0104e-08 0.0021 1.0107e-08 0 1.0221e-08 0 1.0224e-08 0.0021 1.0227e-08 0 1.0341e-08 0 1.0344e-08 0.0021 1.0347e-08 0 1.0461e-08 0 1.0464e-08 0.0021 1.0467e-08 0 1.0581e-08 0 1.0584e-08 0.0021 1.0587e-08 0 1.0701e-08 0 1.0704e-08 0.0021 1.0707e-08 0 1.0821e-08 0 1.0824e-08 0.0021 1.0827e-08 0 1.0941e-08 0 1.0944e-08 0.0021 1.0947e-08 0 1.1061e-08 0 1.1064e-08 0.0021 1.1067e-08 0 1.1181e-08 0 1.1184e-08 0.0021 1.1187e-08 0 1.1301e-08 0 1.1304e-08 0.0021 1.1307e-08 0 1.1421e-08 0 1.1424e-08 0.0021 1.1427e-08 0 1.1541e-08 0 1.1544e-08 0.0021 1.1547e-08 0 1.1661e-08 0 1.1664e-08 0.0021 1.1667e-08 0 1.1781e-08 0 1.1784e-08 0.0021 1.1787e-08 0 1.1901e-08 0 1.1904e-08 0.0021 1.1907e-08 0 1.2021e-08 0 1.2024e-08 0.0021 1.2027e-08 0 1.2141e-08 0 1.2144e-08 0.0021 1.2147e-08 0 1.2261e-08 0 1.2264e-08 0.0021 1.2267e-08 0 1.2381e-08 0 1.2384e-08 0.0021 1.2387e-08 0 1.2501e-08 0 1.2504e-08 0.0021 1.2507e-08 0 1.2621e-08 0 1.2624e-08 0.0021 1.2627e-08 0 1.2741e-08 0 1.2744e-08 0.0021 1.2747e-08 0 1.2861e-08 0 1.2864e-08 0.0021 1.2867e-08 0 1.2981e-08 0 1.2984e-08 0.0021 1.2987e-08 0 1.3101e-08 0 1.3104e-08 0.0021 1.3107e-08 0 1.3221e-08 0 1.3224e-08 0.0021 1.3227e-08 0 1.3341e-08 0 1.3344e-08 0.0021 1.3347e-08 0 1.3461e-08 0 1.3464e-08 0.0021 1.3467e-08 0 1.3581e-08 0 1.3584e-08 0.0021 1.3587e-08 0 1.3701e-08 0 1.3704e-08 0.0021 1.3707e-08 0 1.3821e-08 0 1.3824e-08 0.0021 1.3827e-08 0 1.3941e-08 0 1.3944e-08 0.0021 1.3947e-08 0 1.4061e-08 0 1.4064e-08 0.0021 1.4067e-08 0 1.4181e-08 0 1.4184e-08 0.0021 1.4187e-08 0 1.4301e-08 0 1.4304e-08 0.0021 1.4307e-08 0 1.4421e-08 0 1.4424e-08 0.0021 1.4427e-08 0 1.4541e-08 0 1.4544e-08 0.0021 1.4547e-08 0 1.4661e-08 0 1.4664e-08 0.0021 1.4667e-08 0 1.4781e-08 0 1.4784e-08 0.0021 1.4787e-08 0 1.4901e-08 0 1.4904e-08 0.0021 1.4907e-08 0 1.5021e-08 0 1.5024e-08 0.0021 1.5027e-08 0 1.5141e-08 0 1.5144e-08 0.0021 1.5147e-08 0 1.5261e-08 0 1.5264e-08 0.0021 1.5267e-08 0 1.5381e-08 0 1.5384e-08 0.0021 1.5387e-08 0 1.5501e-08 0 1.5504e-08 0.0021 1.5507e-08 0 1.5621e-08 0 1.5624e-08 0.0021 1.5627e-08 0 1.5741e-08 0 1.5744e-08 0.0021 1.5747e-08 0 1.5861e-08 0 1.5864e-08 0.0021 1.5867e-08 0 1.5981e-08 0 1.5984e-08 0.0021 1.5987e-08 0 1.6101e-08 0 1.6104e-08 0.0021 1.6107e-08 0 1.6221e-08 0 1.6224e-08 0.0021 1.6227e-08 0 1.6341e-08 0 1.6344e-08 0.0021 1.6347e-08 0 1.6461e-08 0 1.6464e-08 0.0021 1.6467e-08 0 1.6581e-08 0 1.6584e-08 0.0021 1.6587e-08 0 1.6701e-08 0 1.6704e-08 0.0021 1.6707e-08 0 1.6821e-08 0 1.6824e-08 0.0021 1.6827e-08 0 1.6941e-08 0 1.6944e-08 0.0021 1.6947e-08 0 1.7061e-08 0 1.7064e-08 0.0021 1.7067e-08 0 1.7181e-08 0 1.7184e-08 0.0021 1.7187e-08 0 1.7301e-08 0 1.7304e-08 0.0021 1.7307e-08 0 1.7421e-08 0 1.7424e-08 0.0021 1.7427e-08 0 1.7541e-08 0 1.7544e-08 0.0021 1.7547e-08 0 1.7661e-08 0 1.7664e-08 0.0021 1.7667e-08 0 1.7781e-08 0 1.7784e-08 0.0021 1.7787e-08 0 1.7901e-08 0 1.7904e-08 0.0021 1.7907e-08 0 1.8021e-08 0 1.8024e-08 0.0021 1.8027e-08 0 1.8141e-08 0 1.8144e-08 0.0021 1.8147e-08 0 1.8261e-08 0 1.8264e-08 0.0021 1.8267e-08 0 1.8381e-08 0 1.8384e-08 0.0021 1.8387e-08 0 1.8501e-08 0 1.8504e-08 0.0021 1.8507e-08 0 1.8621e-08 0 1.8624e-08 0.0021 1.8627e-08 0 1.8741e-08 0 1.8744e-08 0.0021 1.8747e-08 0 1.8861e-08 0 1.8864e-08 0.0021 1.8867e-08 0 1.8981e-08 0 1.8984e-08 0.0021 1.8987e-08 0 1.9101e-08 0 1.9104e-08 0.0021 1.9107e-08 0 1.9221e-08 0 1.9224e-08 0.0021 1.9227e-08 0 1.9341e-08 0 1.9344e-08 0.0021 1.9347e-08 0 1.9461e-08 0 1.9464e-08 0.0021 1.9467e-08 0 1.9581e-08 0 1.9584e-08 0.0021 1.9587e-08 0 1.9701e-08 0 1.9704e-08 0.0021 1.9707e-08 0 1.9821e-08 0 1.9824e-08 0.0021 1.9827e-08 0 1.9941e-08 0 1.9944e-08 0.0021 1.9947e-08 0 2.0061e-08 0 2.0064e-08 0.0021 2.0067e-08 0 2.0181e-08 0 2.0184e-08 0.0021 2.0187e-08 0 2.0301e-08 0 2.0304e-08 0.0021 2.0307e-08 0 2.0421e-08 0 2.0424e-08 0.0021 2.0427e-08 0 2.0541e-08 0 2.0544e-08 0.0021 2.0547e-08 0 2.0661e-08 0 2.0664e-08 0.0021 2.0667e-08 0 2.0781e-08 0 2.0784e-08 0.0021 2.0787e-08 0 2.0901e-08 0 2.0904e-08 0.0021 2.0907e-08 0 2.1021e-08 0 2.1024e-08 0.0021 2.1027e-08 0 2.1141e-08 0 2.1144e-08 0.0021 2.1147e-08 0 2.1261e-08 0 2.1264e-08 0.0021 2.1267e-08 0 2.1381e-08 0 2.1384e-08 0.0021 2.1387e-08 0 2.1501e-08 0 2.1504e-08 0.0021 2.1507e-08 0 2.1621e-08 0 2.1624e-08 0.0021 2.1627e-08 0 2.1741e-08 0 2.1744e-08 0.0021 2.1747e-08 0 2.1861e-08 0 2.1864e-08 0.0021 2.1867e-08 0 2.1981e-08 0 2.1984e-08 0.0021 2.1987e-08 0 2.2101e-08 0 2.2104e-08 0.0021 2.2107e-08 0 2.2221e-08 0 2.2224e-08 0.0021 2.2227e-08 0 2.2341e-08 0 2.2344e-08 0.0021 2.2347e-08 0 2.2461e-08 0 2.2464e-08 0.0021 2.2467e-08 0 2.2581e-08 0 2.2584e-08 0.0021 2.2587e-08 0 2.2701e-08 0 2.2704e-08 0.0021 2.2707e-08 0 2.2821e-08 0 2.2824e-08 0.0021 2.2827e-08 0 2.2941e-08 0 2.2944e-08 0.0021 2.2947e-08 0 2.3061e-08 0 2.3064e-08 0.0021 2.3067e-08 0 2.3181e-08 0 2.3184e-08 0.0021 2.3187e-08 0 2.3301e-08 0 2.3304e-08 0.0021 2.3307e-08 0 2.3421e-08 0 2.3424e-08 0.0021 2.3427e-08 0 2.3541e-08 0 2.3544e-08 0.0021 2.3547e-08 0 2.3661e-08 0 2.3664e-08 0.0021 2.3667e-08 0 2.3781e-08 0 2.3784e-08 0.0021 2.3787e-08 0 2.3901e-08 0 2.3904e-08 0.0021 2.3907e-08 0 2.4021e-08 0 2.4024e-08 0.0021 2.4027e-08 0 2.4141e-08 0 2.4144e-08 0.0021 2.4147e-08 0 2.4261e-08 0 2.4264e-08 0.0021 2.4267e-08 0 2.4381e-08 0 2.4384e-08 0.0021 2.4387e-08 0 2.4501e-08 0 2.4504e-08 0.0021 2.4507e-08 0 2.4621e-08 0 2.4624e-08 0.0021 2.4627e-08 0 2.4741e-08 0 2.4744e-08 0.0021 2.4747e-08 0 2.4861e-08 0 2.4864e-08 0.0021 2.4867e-08 0 2.4981e-08 0 2.4984e-08 0.0021 2.4987e-08 0 2.5101e-08 0 2.5104e-08 0.0021 2.5107e-08 0 2.5221e-08 0 2.5224e-08 0.0021 2.5227e-08 0 2.5341e-08 0 2.5344e-08 0.0021 2.5347e-08 0 2.5461e-08 0 2.5464e-08 0.0021 2.5467e-08 0 2.5581e-08 0 2.5584e-08 0.0021 2.5587e-08 0 2.5701e-08 0 2.5704e-08 0.0021 2.5707e-08 0 2.5821e-08 0 2.5824e-08 0.0021 2.5827e-08 0 2.5941e-08 0 2.5944e-08 0.0021 2.5947e-08 0 2.6061e-08 0 2.6064e-08 0.0021 2.6067e-08 0 2.6181e-08 0 2.6184e-08 0.0021 2.6187e-08 0 2.6301e-08 0 2.6304e-08 0.0021 2.6307e-08 0 2.6421e-08 0 2.6424e-08 0.0021 2.6427e-08 0 2.6541e-08 0 2.6544e-08 0.0021 2.6547e-08 0 2.6661e-08 0 2.6664e-08 0.0021 2.6667e-08 0 2.6781e-08 0 2.6784e-08 0.0021 2.6787e-08 0 2.6901e-08 0 2.6904e-08 0.0021 2.6907e-08 0 2.7021e-08 0 2.7024e-08 0.0021 2.7027e-08 0 2.7141e-08 0 2.7144e-08 0.0021 2.7147e-08 0 2.7261e-08 0 2.7264e-08 0.0021 2.7267e-08 0 2.7381e-08 0 2.7384e-08 0.0021 2.7387e-08 0 2.7501e-08 0 2.7504e-08 0.0021 2.7507e-08 0 2.7621e-08 0 2.7624e-08 0.0021 2.7627e-08 0 2.7741e-08 0 2.7744e-08 0.0021 2.7747e-08 0 2.7861e-08 0 2.7864e-08 0.0021 2.7867e-08 0 2.7981e-08 0 2.7984e-08 0.0021 2.7987e-08 0 2.8101e-08 0 2.8104e-08 0.0021 2.8107e-08 0 2.8221e-08 0 2.8224e-08 0.0021 2.8227e-08 0 2.8341e-08 0 2.8344e-08 0.0021 2.8347e-08 0 2.8461e-08 0 2.8464e-08 0.0021 2.8467e-08 0 2.8581e-08 0 2.8584e-08 0.0021 2.8587e-08 0 2.8701e-08 0 2.8704e-08 0.0021 2.8707e-08 0 2.8821e-08 0 2.8824e-08 0.0021 2.8827e-08 0 2.8941e-08 0 2.8944e-08 0.0021 2.8947e-08 0 2.9061e-08 0 2.9064e-08 0.0021 2.9067e-08 0 2.9181e-08 0 2.9184e-08 0.0021 2.9187e-08 0 2.9301e-08 0 2.9304e-08 0.0021 2.9307e-08 0 2.9421e-08 0 2.9424e-08 0.0021 2.9427e-08 0 2.9541e-08 0 2.9544e-08 0.0021 2.9547e-08 0 2.9661e-08 0 2.9664e-08 0.0021 2.9667e-08 0 2.9781e-08 0 2.9784e-08 0.0021 2.9787e-08 0 2.9901e-08 0 2.9904e-08 0.0021 2.9907e-08 0 3.0021e-08 0 3.0024e-08 0.0021 3.0027e-08 0 3.0141e-08 0 3.0144e-08 0.0021 3.0147e-08 0 3.0261e-08 0 3.0264e-08 0.0021 3.0267e-08 0 3.0381e-08 0 3.0384e-08 0.0021 3.0387e-08 0 3.0501e-08 0 3.0504e-08 0.0021 3.0507e-08 0 3.0621e-08 0 3.0624e-08 0.0021 3.0627e-08 0 3.0741e-08 0 3.0744e-08 0.0021 3.0747e-08 0 3.0861e-08 0 3.0864e-08 0.0021 3.0867e-08 0 3.0981e-08 0 3.0984e-08 0.0021 3.0987e-08 0 3.1101e-08 0 3.1104e-08 0.0021 3.1107e-08 0 3.1221e-08 0 3.1224e-08 0.0021 3.1227e-08 0 3.1341e-08 0 3.1344e-08 0.0021 3.1347e-08 0 3.1461e-08 0 3.1464e-08 0.0021 3.1467e-08 0 3.1581e-08 0 3.1584e-08 0.0021 3.1587e-08 0 3.1701e-08 0 3.1704e-08 0.0021 3.1707e-08 0 3.1821e-08 0 3.1824e-08 0.0021 3.1827e-08 0 3.1941e-08 0 3.1944e-08 0.0021 3.1947e-08 0 3.2061e-08 0 3.2064e-08 0.0021 3.2067e-08 0 3.2181e-08 0 3.2184e-08 0.0021 3.2187e-08 0 3.2301e-08 0 3.2304e-08 0.0021 3.2307e-08 0 3.2421e-08 0 3.2424e-08 0.0021 3.2427e-08 0 3.2541e-08 0 3.2544e-08 0.0021 3.2547e-08 0 3.2661e-08 0 3.2664e-08 0.0021 3.2667e-08 0 3.2781e-08 0 3.2784e-08 0.0021 3.2787e-08 0 3.2901e-08 0 3.2904e-08 0.0021 3.2907e-08 0 3.3021e-08 0 3.3024e-08 0.0021 3.3027e-08 0 3.3141e-08 0 3.3144e-08 0.0021 3.3147e-08 0 3.3261e-08 0 3.3264e-08 0.0021 3.3267e-08 0 3.3381e-08 0 3.3384e-08 0.0021 3.3387e-08 0 3.3501e-08 0 3.3504e-08 0.0021 3.3507e-08 0 3.3621e-08 0 3.3624e-08 0.0021 3.3627e-08 0 3.3741e-08 0 3.3744e-08 0.0021 3.3747e-08 0 3.3861e-08 0 3.3864e-08 0.0021 3.3867e-08 0 3.3981e-08 0 3.3984e-08 0.0021 3.3987e-08 0 3.4101e-08 0 3.4104e-08 0.0021 3.4107e-08 0 3.4221e-08 0 3.4224e-08 0.0021 3.4227e-08 0 3.4341e-08 0 3.4344e-08 0.0021 3.4347e-08 0 3.4461e-08 0 3.4464e-08 0.0021 3.4467e-08 0 3.4581e-08 0 3.4584e-08 0.0021 3.4587e-08 0 3.4701e-08 0 3.4704e-08 0.0021 3.4707e-08 0 3.4821e-08 0 3.4824e-08 0.0021 3.4827e-08 0 3.4941e-08 0 3.4944e-08 0.0021 3.4947e-08 0 3.5061e-08 0 3.5064e-08 0.0021 3.5067e-08 0 3.5181e-08 0 3.5184e-08 0.0021 3.5187e-08 0 3.5301e-08 0 3.5304e-08 0.0021 3.5307e-08 0 3.5421e-08 0 3.5424e-08 0.0021 3.5427e-08 0 3.5541e-08 0 3.5544e-08 0.0021 3.5547e-08 0 3.5661e-08 0 3.5664e-08 0.0021 3.5667e-08 0 3.5781e-08 0 3.5784e-08 0.0021 3.5787e-08 0 3.5901e-08 0 3.5904e-08 0.0021 3.5907e-08 0 3.6021e-08 0 3.6024e-08 0.0021 3.6027e-08 0 3.6141e-08 0 3.6144e-08 0.0021 3.6147e-08 0 3.6261e-08 0 3.6264e-08 0.0021 3.6267e-08 0 3.6381e-08 0 3.6384e-08 0.0021 3.6387e-08 0 3.6501e-08 0 3.6504e-08 0.0021 3.6507e-08 0 3.6621e-08 0 3.6624e-08 0.0021 3.6627e-08 0 3.6741e-08 0 3.6744e-08 0.0021 3.6747e-08 0 3.6861e-08 0 3.6864e-08 0.0021 3.6867e-08 0 3.6981e-08 0 3.6984e-08 0.0021 3.6987e-08 0 3.7101e-08 0 3.7104e-08 0.0021 3.7107e-08 0 3.7221e-08 0 3.7224e-08 0.0021 3.7227e-08 0 3.7341e-08 0 3.7344e-08 0.0021 3.7347e-08 0 3.7461e-08 0 3.7464e-08 0.0021 3.7467e-08 0 3.7581e-08 0 3.7584e-08 0.0021 3.7587e-08 0 3.7701e-08 0 3.7704e-08 0.0021 3.7707e-08 0 3.7821e-08 0 3.7824e-08 0.0021 3.7827e-08 0 3.7941e-08 0 3.7944e-08 0.0021 3.7947e-08 0 3.8061e-08 0 3.8064e-08 0.0021 3.8067e-08 0 3.8181e-08 0 3.8184e-08 0.0021 3.8187e-08 0 3.8301e-08 0 3.8304e-08 0.0021 3.8307e-08 0 3.8421e-08 0 3.8424e-08 0.0021 3.8427e-08 0 3.8541e-08 0 3.8544e-08 0.0021 3.8547e-08 0 3.8661e-08 0 3.8664e-08 0.0021 3.8667e-08 0 3.8781e-08 0 3.8784e-08 0.0021 3.8787e-08 0 3.8901e-08 0 3.8904e-08 0.0021 3.8907e-08 0 3.9021e-08 0 3.9024e-08 0.0021 3.9027e-08 0 3.9141e-08 0 3.9144e-08 0.0021 3.9147e-08 0 3.9261e-08 0 3.9264e-08 0.0021 3.9267e-08 0 3.9381e-08 0 3.9384e-08 0.0021 3.9387e-08 0 3.9501e-08 0 3.9504e-08 0.0021 3.9507e-08 0 3.9621e-08 0 3.9624e-08 0.0021 3.9627e-08 0 3.9741e-08 0 3.9744e-08 0.0021 3.9747e-08 0 3.9861e-08 0 3.9864e-08 0.0021 3.9867e-08 0 3.9981e-08 0 3.9984e-08 0.0021 3.9987e-08 0 4.0101e-08 0 4.0104e-08 0.0021 4.0107e-08 0 4.0221e-08 0 4.0224e-08 0.0021 4.0227e-08 0 4.0341e-08 0 4.0344e-08 0.0021 4.0347e-08 0 4.0461e-08 0 4.0464e-08 0.0021 4.0467e-08 0 4.0581e-08 0 4.0584e-08 0.0021 4.0587e-08 0 4.0701e-08 0 4.0704e-08 0.0021 4.0707e-08 0 4.0821e-08 0 4.0824e-08 0.0021 4.0827e-08 0 4.0941e-08 0 4.0944e-08 0.0021 4.0947e-08 0 4.1061e-08 0 4.1064e-08 0.0021 4.1067e-08 0 4.1181e-08 0 4.1184e-08 0.0021 4.1187e-08 0 4.1301e-08 0 4.1304e-08 0.0021 4.1307e-08 0 4.1421e-08 0 4.1424e-08 0.0021 4.1427e-08 0 4.1541e-08 0 4.1544e-08 0.0021 4.1547e-08 0 4.1661e-08 0 4.1664e-08 0.0021 4.1667e-08 0 4.1781e-08 0 4.1784e-08 0.0021 4.1787e-08 0 4.1901e-08 0 4.1904e-08 0.0021 4.1907e-08 0 4.2021e-08 0 4.2024e-08 0.0021 4.2027e-08 0 4.2141e-08 0 4.2144e-08 0.0021 4.2147e-08 0 4.2261e-08 0 4.2264e-08 0.0021 4.2267e-08 0 4.2381e-08 0 4.2384e-08 0.0021 4.2387e-08 0 4.2501e-08 0 4.2504e-08 0.0021 4.2507e-08 0 4.2621e-08 0 4.2624e-08 0.0021 4.2627e-08 0 4.2741e-08 0 4.2744e-08 0.0021 4.2747e-08 0 4.2861e-08 0 4.2864e-08 0.0021 4.2867e-08 0 4.2981e-08 0 4.2984e-08 0.0021 4.2987e-08 0 4.3101e-08 0 4.3104e-08 0.0021 4.3107e-08 0 4.3221e-08 0 4.3224e-08 0.0021 4.3227e-08 0 4.3341e-08 0 4.3344e-08 0.0021 4.3347e-08 0 4.3461e-08 0 4.3464e-08 0.0021 4.3467e-08 0 4.3581e-08 0 4.3584e-08 0.0021 4.3587e-08 0 4.3701e-08 0 4.3704e-08 0.0021 4.3707e-08 0 4.3821e-08 0 4.3824e-08 0.0021 4.3827e-08 0 4.3941e-08 0 4.3944e-08 0.0021 4.3947e-08 0 4.4061e-08 0 4.4064e-08 0.0021 4.4067e-08 0 4.4181e-08 0 4.4184e-08 0.0021 4.4187e-08 0 4.4301e-08 0 4.4304e-08 0.0021 4.4307e-08 0 4.4421e-08 0 4.4424e-08 0.0021 4.4427e-08 0 4.4541e-08 0 4.4544e-08 0.0021 4.4547e-08 0 4.4661e-08 0 4.4664e-08 0.0021 4.4667e-08 0 4.4781e-08 0 4.4784e-08 0.0021 4.4787e-08 0 4.4901e-08 0 4.4904e-08 0.0021 4.4907e-08 0 4.5021e-08 0 4.5024e-08 0.0021 4.5027e-08 0 4.5141e-08 0 4.5144e-08 0.0021 4.5147e-08 0 4.5261e-08 0 4.5264e-08 0.0021 4.5267e-08 0 4.5381e-08 0 4.5384e-08 0.0021 4.5387e-08 0 4.5501e-08 0 4.5504e-08 0.0021 4.5507e-08 0 4.5621e-08 0 4.5624e-08 0.0021 4.5627e-08 0 4.5741e-08 0 4.5744e-08 0.0021 4.5747e-08 0 4.5861e-08 0 4.5864e-08 0.0021 4.5867e-08 0 4.5981e-08 0 4.5984e-08 0.0021 4.5987e-08 0 4.6101e-08 0 4.6104e-08 0.0021 4.6107e-08 0 4.6221e-08 0 4.6224e-08 0.0021 4.6227e-08 0 4.6341e-08 0 4.6344e-08 0.0021 4.6347e-08 0 4.6461e-08 0 4.6464e-08 0.0021 4.6467e-08 0 4.6581e-08 0 4.6584e-08 0.0021 4.6587e-08 0 4.6701e-08 0 4.6704e-08 0.0021 4.6707e-08 0 4.6821e-08 0 4.6824e-08 0.0021 4.6827e-08 0 4.6941e-08 0 4.6944e-08 0.0021 4.6947e-08 0 4.7061e-08 0 4.7064e-08 0.0021 4.7067e-08 0 4.7181e-08 0 4.7184e-08 0.0021 4.7187e-08 0 4.7301e-08 0 4.7304e-08 0.0021 4.7307e-08 0 4.7421e-08 0 4.7424e-08 0.0021 4.7427e-08 0 4.7541e-08 0 4.7544e-08 0.0021 4.7547e-08 0 4.7661e-08 0 4.7664e-08 0.0021 4.7667e-08 0 4.7781e-08 0 4.7784e-08 0.0021 4.7787e-08 0)