*
.PARAM PHI0=2.067833848e-15
.PARAM B0=1
.PARAM IC0=0.0001
.PARAM ICRS=0.0006859904418
.PARAM B0RS=6.859904418
.PARAM RSHEET=2
.PARAM LSHEET=1.13e-12
.PARAM LP=2e-13
.PARAM LPTL=2e-12
.PARAM IC=2.5
.PARAM LB=2e-12
.PARAM BIASCOEF=0.7
.PARAM TCLOCK=6e-11
.PARAM OS=3e-12
.PARAM STEP=0.08
.MODEL JJMIT JJ(RTYPE=1, VG=2.8MV, CAP=0.07PF, R0=160, RN=16, ICRIT=0.1MA)
.MODEL JJMIT JJ(RTYPE=1, VG=2.8MV, CAP=0.07PF, R0=160, RN=16, ICRIT=0.1MA)
.TRAN 1E-12 17000E-12
R_S0 S0 0  1
R_S1 S1 0  1
R_S2 S2 0  1
R_S3 S3 0  1
R_S4 S4 0  1
IA0|A 0 A0_TX  PWL(0 0 7.38e-11 0 7.68e-11 0.0007 7.98e-11 0 1.938e-10 0 1.968e-10 0.0007 1.998e-10 0 3.138e-10 0 3.168e-10 0.0007 3.198e-10 0 4.338e-10 0 4.368e-10 0.0007 4.398e-10 0 5.538e-10 0 5.568e-10 0.0007 5.598e-10 0 6.738e-10 0 6.768e-10 0.0007 6.798e-10 0 7.938e-10 0 7.968e-10 0.0007 7.998e-10 0 9.138e-10 0 9.168e-10 0.0007 9.198e-10 0 1.0338e-09 0 1.0368e-09 0.0007 1.0398e-09 0 1.1538e-09 0 1.1568e-09 0.0007 1.1598e-09 0 1.2738e-09 0 1.2768e-09 0.0007 1.2798e-09 0 1.3938e-09 0 1.3968e-09 0.0007 1.3998e-09 0 1.5138e-09 0 1.5168e-09 0.0007 1.5198e-09 0 1.6338e-09 0 1.6368e-09 0.0007 1.6398e-09 0 1.7538e-09 0 1.7568e-09 0.0007 1.7598e-09 0 1.8738e-09 0 1.8768e-09 0.0007 1.8798e-09 0 1.9938e-09 0 1.9968e-09 0.0007 1.9998e-09 0 2.1138e-09 0 2.1168e-09 0.0007 2.1198e-09 0 2.2338e-09 0 2.2368e-09 0.0007 2.2398e-09 0 2.3538e-09 0 2.3568e-09 0.0007 2.3598e-09 0 2.4738e-09 0 2.4768e-09 0.0007 2.4798e-09 0 2.5938e-09 0 2.5968e-09 0.0007 2.5998e-09 0 2.7138e-09 0 2.7168e-09 0.0007 2.7198e-09 0 2.8338e-09 0 2.8368e-09 0.0007 2.8398e-09 0 2.9538e-09 0 2.9568e-09 0.0007 2.9598e-09 0 3.0738e-09 0 3.0768e-09 0.0007 3.0798e-09 0 3.1938e-09 0 3.1968e-09 0.0007 3.1998e-09 0 3.3138e-09 0 3.3168e-09 0.0007 3.3198e-09 0 3.4338e-09 0 3.4368e-09 0.0007 3.4398e-09 0 3.5538e-09 0 3.5568e-09 0.0007 3.5598e-09 0 3.6738e-09 0 3.6768e-09 0.0007 3.6798e-09 0 3.7938e-09 0 3.7968e-09 0.0007 3.7998e-09 0 3.9138e-09 0 3.9168e-09 0.0007 3.9198e-09 0 4.0338e-09 0 4.0368e-09 0.0007 4.0398e-09 0 4.1538e-09 0 4.1568e-09 0.0007 4.1598e-09 0 4.2738e-09 0 4.2768e-09 0.0007 4.2798e-09 0 4.3938e-09 0 4.3968e-09 0.0007 4.3998e-09 0 4.5138e-09 0 4.5168e-09 0.0007 4.5198e-09 0 4.6338e-09 0 4.6368e-09 0.0007 4.6398e-09 0 4.7538e-09 0 4.7568e-09 0.0007 4.7598e-09 0 4.8738e-09 0 4.8768e-09 0.0007 4.8798e-09 0 4.9938e-09 0 4.9968e-09 0.0007 4.9998e-09 0 5.1138e-09 0 5.1168e-09 0.0007 5.1198e-09 0 5.2338e-09 0 5.2368e-09 0.0007 5.2398e-09 0 5.3538e-09 0 5.3568e-09 0.0007 5.3598e-09 0 5.4738e-09 0 5.4768e-09 0.0007 5.4798e-09 0 5.5938e-09 0 5.5968e-09 0.0007 5.5998e-09 0 5.7138e-09 0 5.7168e-09 0.0007 5.7198e-09 0 5.8338e-09 0 5.8368e-09 0.0007 5.8398e-09 0 5.9538e-09 0 5.9568e-09 0.0007 5.9598e-09 0 6.0738e-09 0 6.0768e-09 0.0007 6.0798e-09 0 6.1938e-09 0 6.1968e-09 0.0007 6.1998e-09 0 6.3138e-09 0 6.3168e-09 0.0007 6.3198e-09 0 6.4338e-09 0 6.4368e-09 0.0007 6.4398e-09 0 6.5538e-09 0 6.5568e-09 0.0007 6.5598e-09 0 6.6738e-09 0 6.6768e-09 0.0007 6.6798e-09 0 6.7938e-09 0 6.7968e-09 0.0007 6.7998e-09 0 6.9138e-09 0 6.9168e-09 0.0007 6.9198e-09 0 7.0338e-09 0 7.0368e-09 0.0007 7.0398e-09 0 7.1538e-09 0 7.1568e-09 0.0007 7.1598e-09 0 7.2738e-09 0 7.2768e-09 0.0007 7.2798e-09 0 7.3938e-09 0 7.3968e-09 0.0007 7.3998e-09 0 7.5138e-09 0 7.5168e-09 0.0007 7.5198e-09 0 7.6338e-09 0 7.6368e-09 0.0007 7.6398e-09 0 7.7538e-09 0 7.7568e-09 0.0007 7.7598e-09 0 7.8738e-09 0 7.8768e-09 0.0007 7.8798e-09 0 7.9938e-09 0 7.9968e-09 0.0007 7.9998e-09 0 8.1138e-09 0 8.1168e-09 0.0007 8.1198e-09 0 8.2338e-09 0 8.2368e-09 0.0007 8.2398e-09 0 8.3538e-09 0 8.3568e-09 0.0007 8.3598e-09 0 8.4738e-09 0 8.4768e-09 0.0007 8.4798e-09 0 8.5938e-09 0 8.5968e-09 0.0007 8.5998e-09 0 8.7138e-09 0 8.7168e-09 0.0007 8.7198e-09 0 8.8338e-09 0 8.8368e-09 0.0007 8.8398e-09 0 8.9538e-09 0 8.9568e-09 0.0007 8.9598e-09 0 9.0738e-09 0 9.0768e-09 0.0007 9.0798e-09 0 9.1938e-09 0 9.1968e-09 0.0007 9.1998e-09 0 9.3138e-09 0 9.3168e-09 0.0007 9.3198e-09 0 9.4338e-09 0 9.4368e-09 0.0007 9.4398e-09 0 9.5538e-09 0 9.5568e-09 0.0007 9.5598e-09 0 9.6738e-09 0 9.6768e-09 0.0007 9.6798e-09 0 9.7938e-09 0 9.7968e-09 0.0007 9.7998e-09 0 9.9138e-09 0 9.9168e-09 0.0007 9.9198e-09 0 1.00338e-08 0 1.00368e-08 0.0007 1.00398e-08 0 1.01538e-08 0 1.01568e-08 0.0007 1.01598e-08 0 1.02738e-08 0 1.02768e-08 0.0007 1.02798e-08 0 1.03938e-08 0 1.03968e-08 0.0007 1.03998e-08 0 1.05138e-08 0 1.05168e-08 0.0007 1.05198e-08 0 1.06338e-08 0 1.06368e-08 0.0007 1.06398e-08 0 1.07538e-08 0 1.07568e-08 0.0007 1.07598e-08 0 1.08738e-08 0 1.08768e-08 0.0007 1.08798e-08 0 1.09938e-08 0 1.09968e-08 0.0007 1.09998e-08 0 1.11138e-08 0 1.11168e-08 0.0007 1.11198e-08 0 1.12338e-08 0 1.12368e-08 0.0007 1.12398e-08 0 1.13538e-08 0 1.13568e-08 0.0007 1.13598e-08 0 1.14738e-08 0 1.14768e-08 0.0007 1.14798e-08 0 1.15938e-08 0 1.15968e-08 0.0007 1.15998e-08 0 1.17138e-08 0 1.17168e-08 0.0007 1.17198e-08 0 1.18338e-08 0 1.18368e-08 0.0007 1.18398e-08 0 1.19538e-08 0 1.19568e-08 0.0007 1.19598e-08 0 1.20738e-08 0 1.20768e-08 0.0007 1.20798e-08 0 1.21938e-08 0 1.21968e-08 0.0007 1.21998e-08 0 1.23138e-08 0 1.23168e-08 0.0007 1.23198e-08 0 1.24338e-08 0 1.24368e-08 0.0007 1.24398e-08 0 1.25538e-08 0 1.25568e-08 0.0007 1.25598e-08 0 1.26738e-08 0 1.26768e-08 0.0007 1.26798e-08 0 1.27938e-08 0 1.27968e-08 0.0007 1.27998e-08 0 1.29138e-08 0 1.29168e-08 0.0007 1.29198e-08 0 1.30338e-08 0 1.30368e-08 0.0007 1.30398e-08 0 1.31538e-08 0 1.31568e-08 0.0007 1.31598e-08 0 1.32738e-08 0 1.32768e-08 0.0007 1.32798e-08 0 1.33938e-08 0 1.33968e-08 0.0007 1.33998e-08 0 1.35138e-08 0 1.35168e-08 0.0007 1.35198e-08 0 1.36338e-08 0 1.36368e-08 0.0007 1.36398e-08 0 1.37538e-08 0 1.37568e-08 0.0007 1.37598e-08 0 1.38738e-08 0 1.38768e-08 0.0007 1.38798e-08 0 1.39938e-08 0 1.39968e-08 0.0007 1.39998e-08 0 1.41138e-08 0 1.41168e-08 0.0007 1.41198e-08 0 1.42338e-08 0 1.42368e-08 0.0007 1.42398e-08 0 1.43538e-08 0 1.43568e-08 0.0007 1.43598e-08 0 1.44738e-08 0 1.44768e-08 0.0007 1.44798e-08 0 1.45938e-08 0 1.45968e-08 0.0007 1.45998e-08 0 1.47138e-08 0 1.47168e-08 0.0007 1.47198e-08 0 1.48338e-08 0 1.48368e-08 0.0007 1.48398e-08 0 1.49538e-08 0 1.49568e-08 0.0007 1.49598e-08 0 1.50738e-08 0 1.50768e-08 0.0007 1.50798e-08 0 1.51938e-08 0 1.51968e-08 0.0007 1.51998e-08 0 1.53138e-08 0 1.53168e-08 0.0007 1.53198e-08 0)
IB0|B 0 B0_TX  PWL(0 0 1.338e-10 0 1.368e-10 0.0007 1.398e-10 0 1.938e-10 0 1.968e-10 0.0007 1.998e-10 0 3.738e-10 0 3.768e-10 0.0007 3.798e-10 0 4.338e-10 0 4.368e-10 0.0007 4.398e-10 0 6.138e-10 0 6.168e-10 0.0007 6.198e-10 0 6.738e-10 0 6.768e-10 0.0007 6.798e-10 0 8.538e-10 0 8.568e-10 0.0007 8.598e-10 0 9.138e-10 0 9.168e-10 0.0007 9.198e-10 0 1.0938e-09 0 1.0968e-09 0.0007 1.0998e-09 0 1.1538e-09 0 1.1568e-09 0.0007 1.1598e-09 0 1.3338e-09 0 1.3368e-09 0.0007 1.3398e-09 0 1.3938e-09 0 1.3968e-09 0.0007 1.3998e-09 0 1.5738e-09 0 1.5768e-09 0.0007 1.5798e-09 0 1.6338e-09 0 1.6368e-09 0.0007 1.6398e-09 0 1.8138e-09 0 1.8168e-09 0.0007 1.8198e-09 0 1.8738e-09 0 1.8768e-09 0.0007 1.8798e-09 0 2.0538e-09 0 2.0568e-09 0.0007 2.0598e-09 0 2.1138e-09 0 2.1168e-09 0.0007 2.1198e-09 0 2.2938e-09 0 2.2968e-09 0.0007 2.2998e-09 0 2.3538e-09 0 2.3568e-09 0.0007 2.3598e-09 0 2.5338e-09 0 2.5368e-09 0.0007 2.5398e-09 0 2.5938e-09 0 2.5968e-09 0.0007 2.5998e-09 0 2.7738e-09 0 2.7768e-09 0.0007 2.7798e-09 0 2.8338e-09 0 2.8368e-09 0.0007 2.8398e-09 0 3.0138e-09 0 3.0168e-09 0.0007 3.0198e-09 0 3.0738e-09 0 3.0768e-09 0.0007 3.0798e-09 0 3.2538e-09 0 3.2568e-09 0.0007 3.2598e-09 0 3.3138e-09 0 3.3168e-09 0.0007 3.3198e-09 0 3.4938e-09 0 3.4968e-09 0.0007 3.4998e-09 0 3.5538e-09 0 3.5568e-09 0.0007 3.5598e-09 0 3.7338e-09 0 3.7368e-09 0.0007 3.7398e-09 0 3.7938e-09 0 3.7968e-09 0.0007 3.7998e-09 0 3.9738e-09 0 3.9768e-09 0.0007 3.9798e-09 0 4.0338e-09 0 4.0368e-09 0.0007 4.0398e-09 0 4.2138e-09 0 4.2168e-09 0.0007 4.2198e-09 0 4.2738e-09 0 4.2768e-09 0.0007 4.2798e-09 0 4.4538e-09 0 4.4568e-09 0.0007 4.4598e-09 0 4.5138e-09 0 4.5168e-09 0.0007 4.5198e-09 0 4.6938e-09 0 4.6968e-09 0.0007 4.6998e-09 0 4.7538e-09 0 4.7568e-09 0.0007 4.7598e-09 0 4.9338e-09 0 4.9368e-09 0.0007 4.9398e-09 0 4.9938e-09 0 4.9968e-09 0.0007 4.9998e-09 0 5.1738e-09 0 5.1768e-09 0.0007 5.1798e-09 0 5.2338e-09 0 5.2368e-09 0.0007 5.2398e-09 0 5.4138e-09 0 5.4168e-09 0.0007 5.4198e-09 0 5.4738e-09 0 5.4768e-09 0.0007 5.4798e-09 0 5.6538e-09 0 5.6568e-09 0.0007 5.6598e-09 0 5.7138e-09 0 5.7168e-09 0.0007 5.7198e-09 0 5.8938e-09 0 5.8968e-09 0.0007 5.8998e-09 0 5.9538e-09 0 5.9568e-09 0.0007 5.9598e-09 0 6.1338e-09 0 6.1368e-09 0.0007 6.1398e-09 0 6.1938e-09 0 6.1968e-09 0.0007 6.1998e-09 0 6.3738e-09 0 6.3768e-09 0.0007 6.3798e-09 0 6.4338e-09 0 6.4368e-09 0.0007 6.4398e-09 0 6.6138e-09 0 6.6168e-09 0.0007 6.6198e-09 0 6.6738e-09 0 6.6768e-09 0.0007 6.6798e-09 0 6.8538e-09 0 6.8568e-09 0.0007 6.8598e-09 0 6.9138e-09 0 6.9168e-09 0.0007 6.9198e-09 0 7.0938e-09 0 7.0968e-09 0.0007 7.0998e-09 0 7.1538e-09 0 7.1568e-09 0.0007 7.1598e-09 0 7.3338e-09 0 7.3368e-09 0.0007 7.3398e-09 0 7.3938e-09 0 7.3968e-09 0.0007 7.3998e-09 0 7.5738e-09 0 7.5768e-09 0.0007 7.5798e-09 0 7.6338e-09 0 7.6368e-09 0.0007 7.6398e-09 0 7.8138e-09 0 7.8168e-09 0.0007 7.8198e-09 0 7.8738e-09 0 7.8768e-09 0.0007 7.8798e-09 0 8.0538e-09 0 8.0568e-09 0.0007 8.0598e-09 0 8.1138e-09 0 8.1168e-09 0.0007 8.1198e-09 0 8.2938e-09 0 8.2968e-09 0.0007 8.2998e-09 0 8.3538e-09 0 8.3568e-09 0.0007 8.3598e-09 0 8.5338e-09 0 8.5368e-09 0.0007 8.5398e-09 0 8.5938e-09 0 8.5968e-09 0.0007 8.5998e-09 0 8.7738e-09 0 8.7768e-09 0.0007 8.7798e-09 0 8.8338e-09 0 8.8368e-09 0.0007 8.8398e-09 0 9.0138e-09 0 9.0168e-09 0.0007 9.0198e-09 0 9.0738e-09 0 9.0768e-09 0.0007 9.0798e-09 0 9.2538e-09 0 9.2568e-09 0.0007 9.2598e-09 0 9.3138e-09 0 9.3168e-09 0.0007 9.3198e-09 0 9.4938e-09 0 9.4968e-09 0.0007 9.4998e-09 0 9.5538e-09 0 9.5568e-09 0.0007 9.5598e-09 0 9.7338e-09 0 9.7368e-09 0.0007 9.7398e-09 0 9.7938e-09 0 9.7968e-09 0.0007 9.7998e-09 0 9.9738e-09 0 9.9768e-09 0.0007 9.9798e-09 0 1.00338e-08 0 1.00368e-08 0.0007 1.00398e-08 0 1.02138e-08 0 1.02168e-08 0.0007 1.02198e-08 0 1.02738e-08 0 1.02768e-08 0.0007 1.02798e-08 0 1.04538e-08 0 1.04568e-08 0.0007 1.04598e-08 0 1.05138e-08 0 1.05168e-08 0.0007 1.05198e-08 0 1.06938e-08 0 1.06968e-08 0.0007 1.06998e-08 0 1.07538e-08 0 1.07568e-08 0.0007 1.07598e-08 0 1.09338e-08 0 1.09368e-08 0.0007 1.09398e-08 0 1.09938e-08 0 1.09968e-08 0.0007 1.09998e-08 0 1.11738e-08 0 1.11768e-08 0.0007 1.11798e-08 0 1.12338e-08 0 1.12368e-08 0.0007 1.12398e-08 0 1.14138e-08 0 1.14168e-08 0.0007 1.14198e-08 0 1.14738e-08 0 1.14768e-08 0.0007 1.14798e-08 0 1.16538e-08 0 1.16568e-08 0.0007 1.16598e-08 0 1.17138e-08 0 1.17168e-08 0.0007 1.17198e-08 0 1.18938e-08 0 1.18968e-08 0.0007 1.18998e-08 0 1.19538e-08 0 1.19568e-08 0.0007 1.19598e-08 0 1.21338e-08 0 1.21368e-08 0.0007 1.21398e-08 0 1.21938e-08 0 1.21968e-08 0.0007 1.21998e-08 0 1.23738e-08 0 1.23768e-08 0.0007 1.23798e-08 0 1.24338e-08 0 1.24368e-08 0.0007 1.24398e-08 0 1.26138e-08 0 1.26168e-08 0.0007 1.26198e-08 0 1.26738e-08 0 1.26768e-08 0.0007 1.26798e-08 0 1.28538e-08 0 1.28568e-08 0.0007 1.28598e-08 0 1.29138e-08 0 1.29168e-08 0.0007 1.29198e-08 0 1.30938e-08 0 1.30968e-08 0.0007 1.30998e-08 0 1.31538e-08 0 1.31568e-08 0.0007 1.31598e-08 0 1.33338e-08 0 1.33368e-08 0.0007 1.33398e-08 0 1.33938e-08 0 1.33968e-08 0.0007 1.33998e-08 0 1.35738e-08 0 1.35768e-08 0.0007 1.35798e-08 0 1.36338e-08 0 1.36368e-08 0.0007 1.36398e-08 0 1.38138e-08 0 1.38168e-08 0.0007 1.38198e-08 0 1.38738e-08 0 1.38768e-08 0.0007 1.38798e-08 0 1.40538e-08 0 1.40568e-08 0.0007 1.40598e-08 0 1.41138e-08 0 1.41168e-08 0.0007 1.41198e-08 0 1.42938e-08 0 1.42968e-08 0.0007 1.42998e-08 0 1.43538e-08 0 1.43568e-08 0.0007 1.43598e-08 0 1.45338e-08 0 1.45368e-08 0.0007 1.45398e-08 0 1.45938e-08 0 1.45968e-08 0.0007 1.45998e-08 0 1.47738e-08 0 1.47768e-08 0.0007 1.47798e-08 0 1.48338e-08 0 1.48368e-08 0.0007 1.48398e-08 0 1.50138e-08 0 1.50168e-08 0.0007 1.50198e-08 0 1.50738e-08 0 1.50768e-08 0.0007 1.50798e-08 0 1.52538e-08 0 1.52568e-08 0.0007 1.52598e-08 0 1.53138e-08 0 1.53168e-08 0.0007 1.53198e-08 0)
IA1|C 0 A1_TX  PWL(0 0 2.538e-10 0 2.568e-10 0.0007 2.598e-10 0 3.138e-10 0 3.168e-10 0.0007 3.198e-10 0 3.738e-10 0 3.768e-10 0.0007 3.798e-10 0 4.338e-10 0 4.368e-10 0.0007 4.398e-10 0 7.338e-10 0 7.368e-10 0.0007 7.398e-10 0 7.938e-10 0 7.968e-10 0.0007 7.998e-10 0 8.538e-10 0 8.568e-10 0.0007 8.598e-10 0 9.138e-10 0 9.168e-10 0.0007 9.198e-10 0 1.2138e-09 0 1.2168e-09 0.0007 1.2198e-09 0 1.2738e-09 0 1.2768e-09 0.0007 1.2798e-09 0 1.3338e-09 0 1.3368e-09 0.0007 1.3398e-09 0 1.3938e-09 0 1.3968e-09 0.0007 1.3998e-09 0 1.6938e-09 0 1.6968e-09 0.0007 1.6998e-09 0 1.7538e-09 0 1.7568e-09 0.0007 1.7598e-09 0 1.8138e-09 0 1.8168e-09 0.0007 1.8198e-09 0 1.8738e-09 0 1.8768e-09 0.0007 1.8798e-09 0 2.1738e-09 0 2.1768e-09 0.0007 2.1798e-09 0 2.2338e-09 0 2.2368e-09 0.0007 2.2398e-09 0 2.2938e-09 0 2.2968e-09 0.0007 2.2998e-09 0 2.3538e-09 0 2.3568e-09 0.0007 2.3598e-09 0 2.6538e-09 0 2.6568e-09 0.0007 2.6598e-09 0 2.7138e-09 0 2.7168e-09 0.0007 2.7198e-09 0 2.7738e-09 0 2.7768e-09 0.0007 2.7798e-09 0 2.8338e-09 0 2.8368e-09 0.0007 2.8398e-09 0 3.1338e-09 0 3.1368e-09 0.0007 3.1398e-09 0 3.1938e-09 0 3.1968e-09 0.0007 3.1998e-09 0 3.2538e-09 0 3.2568e-09 0.0007 3.2598e-09 0 3.3138e-09 0 3.3168e-09 0.0007 3.3198e-09 0 3.6138e-09 0 3.6168e-09 0.0007 3.6198e-09 0 3.6738e-09 0 3.6768e-09 0.0007 3.6798e-09 0 3.7338e-09 0 3.7368e-09 0.0007 3.7398e-09 0 3.7938e-09 0 3.7968e-09 0.0007 3.7998e-09 0 4.0938e-09 0 4.0968e-09 0.0007 4.0998e-09 0 4.1538e-09 0 4.1568e-09 0.0007 4.1598e-09 0 4.2138e-09 0 4.2168e-09 0.0007 4.2198e-09 0 4.2738e-09 0 4.2768e-09 0.0007 4.2798e-09 0 4.5738e-09 0 4.5768e-09 0.0007 4.5798e-09 0 4.6338e-09 0 4.6368e-09 0.0007 4.6398e-09 0 4.6938e-09 0 4.6968e-09 0.0007 4.6998e-09 0 4.7538e-09 0 4.7568e-09 0.0007 4.7598e-09 0 5.0538e-09 0 5.0568e-09 0.0007 5.0598e-09 0 5.1138e-09 0 5.1168e-09 0.0007 5.1198e-09 0 5.1738e-09 0 5.1768e-09 0.0007 5.1798e-09 0 5.2338e-09 0 5.2368e-09 0.0007 5.2398e-09 0 5.5338e-09 0 5.5368e-09 0.0007 5.5398e-09 0 5.5938e-09 0 5.5968e-09 0.0007 5.5998e-09 0 5.6538e-09 0 5.6568e-09 0.0007 5.6598e-09 0 5.7138e-09 0 5.7168e-09 0.0007 5.7198e-09 0 6.0138e-09 0 6.0168e-09 0.0007 6.0198e-09 0 6.0738e-09 0 6.0768e-09 0.0007 6.0798e-09 0 6.1338e-09 0 6.1368e-09 0.0007 6.1398e-09 0 6.1938e-09 0 6.1968e-09 0.0007 6.1998e-09 0 6.4938e-09 0 6.4968e-09 0.0007 6.4998e-09 0 6.5538e-09 0 6.5568e-09 0.0007 6.5598e-09 0 6.6138e-09 0 6.6168e-09 0.0007 6.6198e-09 0 6.6738e-09 0 6.6768e-09 0.0007 6.6798e-09 0 6.9738e-09 0 6.9768e-09 0.0007 6.9798e-09 0 7.0338e-09 0 7.0368e-09 0.0007 7.0398e-09 0 7.0938e-09 0 7.0968e-09 0.0007 7.0998e-09 0 7.1538e-09 0 7.1568e-09 0.0007 7.1598e-09 0 7.4538e-09 0 7.4568e-09 0.0007 7.4598e-09 0 7.5138e-09 0 7.5168e-09 0.0007 7.5198e-09 0 7.5738e-09 0 7.5768e-09 0.0007 7.5798e-09 0 7.6338e-09 0 7.6368e-09 0.0007 7.6398e-09 0 7.9338e-09 0 7.9368e-09 0.0007 7.9398e-09 0 7.9938e-09 0 7.9968e-09 0.0007 7.9998e-09 0 8.0538e-09 0 8.0568e-09 0.0007 8.0598e-09 0 8.1138e-09 0 8.1168e-09 0.0007 8.1198e-09 0 8.4138e-09 0 8.4168e-09 0.0007 8.4198e-09 0 8.4738e-09 0 8.4768e-09 0.0007 8.4798e-09 0 8.5338e-09 0 8.5368e-09 0.0007 8.5398e-09 0 8.5938e-09 0 8.5968e-09 0.0007 8.5998e-09 0 8.8938e-09 0 8.8968e-09 0.0007 8.8998e-09 0 8.9538e-09 0 8.9568e-09 0.0007 8.9598e-09 0 9.0138e-09 0 9.0168e-09 0.0007 9.0198e-09 0 9.0738e-09 0 9.0768e-09 0.0007 9.0798e-09 0 9.3738e-09 0 9.3768e-09 0.0007 9.3798e-09 0 9.4338e-09 0 9.4368e-09 0.0007 9.4398e-09 0 9.4938e-09 0 9.4968e-09 0.0007 9.4998e-09 0 9.5538e-09 0 9.5568e-09 0.0007 9.5598e-09 0 9.8538e-09 0 9.8568e-09 0.0007 9.8598e-09 0 9.9138e-09 0 9.9168e-09 0.0007 9.9198e-09 0 9.9738e-09 0 9.9768e-09 0.0007 9.9798e-09 0 1.00338e-08 0 1.00368e-08 0.0007 1.00398e-08 0 1.03338e-08 0 1.03368e-08 0.0007 1.03398e-08 0 1.03938e-08 0 1.03968e-08 0.0007 1.03998e-08 0 1.04538e-08 0 1.04568e-08 0.0007 1.04598e-08 0 1.05138e-08 0 1.05168e-08 0.0007 1.05198e-08 0 1.08138e-08 0 1.08168e-08 0.0007 1.08198e-08 0 1.08738e-08 0 1.08768e-08 0.0007 1.08798e-08 0 1.09338e-08 0 1.09368e-08 0.0007 1.09398e-08 0 1.09938e-08 0 1.09968e-08 0.0007 1.09998e-08 0 1.12938e-08 0 1.12968e-08 0.0007 1.12998e-08 0 1.13538e-08 0 1.13568e-08 0.0007 1.13598e-08 0 1.14138e-08 0 1.14168e-08 0.0007 1.14198e-08 0 1.14738e-08 0 1.14768e-08 0.0007 1.14798e-08 0 1.17738e-08 0 1.17768e-08 0.0007 1.17798e-08 0 1.18338e-08 0 1.18368e-08 0.0007 1.18398e-08 0 1.18938e-08 0 1.18968e-08 0.0007 1.18998e-08 0 1.19538e-08 0 1.19568e-08 0.0007 1.19598e-08 0 1.22538e-08 0 1.22568e-08 0.0007 1.22598e-08 0 1.23138e-08 0 1.23168e-08 0.0007 1.23198e-08 0 1.23738e-08 0 1.23768e-08 0.0007 1.23798e-08 0 1.24338e-08 0 1.24368e-08 0.0007 1.24398e-08 0 1.27338e-08 0 1.27368e-08 0.0007 1.27398e-08 0 1.27938e-08 0 1.27968e-08 0.0007 1.27998e-08 0 1.28538e-08 0 1.28568e-08 0.0007 1.28598e-08 0 1.29138e-08 0 1.29168e-08 0.0007 1.29198e-08 0 1.32138e-08 0 1.32168e-08 0.0007 1.32198e-08 0 1.32738e-08 0 1.32768e-08 0.0007 1.32798e-08 0 1.33338e-08 0 1.33368e-08 0.0007 1.33398e-08 0 1.33938e-08 0 1.33968e-08 0.0007 1.33998e-08 0 1.36938e-08 0 1.36968e-08 0.0007 1.36998e-08 0 1.37538e-08 0 1.37568e-08 0.0007 1.37598e-08 0 1.38138e-08 0 1.38168e-08 0.0007 1.38198e-08 0 1.38738e-08 0 1.38768e-08 0.0007 1.38798e-08 0 1.41738e-08 0 1.41768e-08 0.0007 1.41798e-08 0 1.42338e-08 0 1.42368e-08 0.0007 1.42398e-08 0 1.42938e-08 0 1.42968e-08 0.0007 1.42998e-08 0 1.43538e-08 0 1.43568e-08 0.0007 1.43598e-08 0 1.46538e-08 0 1.46568e-08 0.0007 1.46598e-08 0 1.47138e-08 0 1.47168e-08 0.0007 1.47198e-08 0 1.47738e-08 0 1.47768e-08 0.0007 1.47798e-08 0 1.48338e-08 0 1.48368e-08 0.0007 1.48398e-08 0 1.51338e-08 0 1.51368e-08 0.0007 1.51398e-08 0 1.51938e-08 0 1.51968e-08 0.0007 1.51998e-08 0 1.52538e-08 0 1.52568e-08 0.0007 1.52598e-08 0 1.53138e-08 0 1.53168e-08 0.0007 1.53198e-08 0)
IB1|D 0 B1_TX  PWL(0 0 4.938e-10 0 4.968e-10 0.0007 4.998e-10 0 5.538e-10 0 5.568e-10 0.0007 5.598e-10 0 6.138e-10 0 6.168e-10 0.0007 6.198e-10 0 6.738e-10 0 6.768e-10 0.0007 6.798e-10 0 7.338e-10 0 7.368e-10 0.0007 7.398e-10 0 7.938e-10 0 7.968e-10 0.0007 7.998e-10 0 8.538e-10 0 8.568e-10 0.0007 8.598e-10 0 9.138e-10 0 9.168e-10 0.0007 9.198e-10 0 1.4538e-09 0 1.4568e-09 0.0007 1.4598e-09 0 1.5138e-09 0 1.5168e-09 0.0007 1.5198e-09 0 1.5738e-09 0 1.5768e-09 0.0007 1.5798e-09 0 1.6338e-09 0 1.6368e-09 0.0007 1.6398e-09 0 1.6938e-09 0 1.6968e-09 0.0007 1.6998e-09 0 1.7538e-09 0 1.7568e-09 0.0007 1.7598e-09 0 1.8138e-09 0 1.8168e-09 0.0007 1.8198e-09 0 1.8738e-09 0 1.8768e-09 0.0007 1.8798e-09 0 2.4138e-09 0 2.4168e-09 0.0007 2.4198e-09 0 2.4738e-09 0 2.4768e-09 0.0007 2.4798e-09 0 2.5338e-09 0 2.5368e-09 0.0007 2.5398e-09 0 2.5938e-09 0 2.5968e-09 0.0007 2.5998e-09 0 2.6538e-09 0 2.6568e-09 0.0007 2.6598e-09 0 2.7138e-09 0 2.7168e-09 0.0007 2.7198e-09 0 2.7738e-09 0 2.7768e-09 0.0007 2.7798e-09 0 2.8338e-09 0 2.8368e-09 0.0007 2.8398e-09 0 3.3738e-09 0 3.3768e-09 0.0007 3.3798e-09 0 3.4338e-09 0 3.4368e-09 0.0007 3.4398e-09 0 3.4938e-09 0 3.4968e-09 0.0007 3.4998e-09 0 3.5538e-09 0 3.5568e-09 0.0007 3.5598e-09 0 3.6138e-09 0 3.6168e-09 0.0007 3.6198e-09 0 3.6738e-09 0 3.6768e-09 0.0007 3.6798e-09 0 3.7338e-09 0 3.7368e-09 0.0007 3.7398e-09 0 3.7938e-09 0 3.7968e-09 0.0007 3.7998e-09 0 4.3338e-09 0 4.3368e-09 0.0007 4.3398e-09 0 4.3938e-09 0 4.3968e-09 0.0007 4.3998e-09 0 4.4538e-09 0 4.4568e-09 0.0007 4.4598e-09 0 4.5138e-09 0 4.5168e-09 0.0007 4.5198e-09 0 4.5738e-09 0 4.5768e-09 0.0007 4.5798e-09 0 4.6338e-09 0 4.6368e-09 0.0007 4.6398e-09 0 4.6938e-09 0 4.6968e-09 0.0007 4.6998e-09 0 4.7538e-09 0 4.7568e-09 0.0007 4.7598e-09 0 5.2938e-09 0 5.2968e-09 0.0007 5.2998e-09 0 5.3538e-09 0 5.3568e-09 0.0007 5.3598e-09 0 5.4138e-09 0 5.4168e-09 0.0007 5.4198e-09 0 5.4738e-09 0 5.4768e-09 0.0007 5.4798e-09 0 5.5338e-09 0 5.5368e-09 0.0007 5.5398e-09 0 5.5938e-09 0 5.5968e-09 0.0007 5.5998e-09 0 5.6538e-09 0 5.6568e-09 0.0007 5.6598e-09 0 5.7138e-09 0 5.7168e-09 0.0007 5.7198e-09 0 6.2538e-09 0 6.2568e-09 0.0007 6.2598e-09 0 6.3138e-09 0 6.3168e-09 0.0007 6.3198e-09 0 6.3738e-09 0 6.3768e-09 0.0007 6.3798e-09 0 6.4338e-09 0 6.4368e-09 0.0007 6.4398e-09 0 6.4938e-09 0 6.4968e-09 0.0007 6.4998e-09 0 6.5538e-09 0 6.5568e-09 0.0007 6.5598e-09 0 6.6138e-09 0 6.6168e-09 0.0007 6.6198e-09 0 6.6738e-09 0 6.6768e-09 0.0007 6.6798e-09 0 7.2138e-09 0 7.2168e-09 0.0007 7.2198e-09 0 7.2738e-09 0 7.2768e-09 0.0007 7.2798e-09 0 7.3338e-09 0 7.3368e-09 0.0007 7.3398e-09 0 7.3938e-09 0 7.3968e-09 0.0007 7.3998e-09 0 7.4538e-09 0 7.4568e-09 0.0007 7.4598e-09 0 7.5138e-09 0 7.5168e-09 0.0007 7.5198e-09 0 7.5738e-09 0 7.5768e-09 0.0007 7.5798e-09 0 7.6338e-09 0 7.6368e-09 0.0007 7.6398e-09 0 8.1738e-09 0 8.1768e-09 0.0007 8.1798e-09 0 8.2338e-09 0 8.2368e-09 0.0007 8.2398e-09 0 8.2938e-09 0 8.2968e-09 0.0007 8.2998e-09 0 8.3538e-09 0 8.3568e-09 0.0007 8.3598e-09 0 8.4138e-09 0 8.4168e-09 0.0007 8.4198e-09 0 8.4738e-09 0 8.4768e-09 0.0007 8.4798e-09 0 8.5338e-09 0 8.5368e-09 0.0007 8.5398e-09 0 8.5938e-09 0 8.5968e-09 0.0007 8.5998e-09 0 9.1338e-09 0 9.1368e-09 0.0007 9.1398e-09 0 9.1938e-09 0 9.1968e-09 0.0007 9.1998e-09 0 9.2538e-09 0 9.2568e-09 0.0007 9.2598e-09 0 9.3138e-09 0 9.3168e-09 0.0007 9.3198e-09 0 9.3738e-09 0 9.3768e-09 0.0007 9.3798e-09 0 9.4338e-09 0 9.4368e-09 0.0007 9.4398e-09 0 9.4938e-09 0 9.4968e-09 0.0007 9.4998e-09 0 9.5538e-09 0 9.5568e-09 0.0007 9.5598e-09 0 1.00938e-08 0 1.00968e-08 0.0007 1.00998e-08 0 1.01538e-08 0 1.01568e-08 0.0007 1.01598e-08 0 1.02138e-08 0 1.02168e-08 0.0007 1.02198e-08 0 1.02738e-08 0 1.02768e-08 0.0007 1.02798e-08 0 1.03338e-08 0 1.03368e-08 0.0007 1.03398e-08 0 1.03938e-08 0 1.03968e-08 0.0007 1.03998e-08 0 1.04538e-08 0 1.04568e-08 0.0007 1.04598e-08 0 1.05138e-08 0 1.05168e-08 0.0007 1.05198e-08 0 1.10538e-08 0 1.10568e-08 0.0007 1.10598e-08 0 1.11138e-08 0 1.11168e-08 0.0007 1.11198e-08 0 1.11738e-08 0 1.11768e-08 0.0007 1.11798e-08 0 1.12338e-08 0 1.12368e-08 0.0007 1.12398e-08 0 1.12938e-08 0 1.12968e-08 0.0007 1.12998e-08 0 1.13538e-08 0 1.13568e-08 0.0007 1.13598e-08 0 1.14138e-08 0 1.14168e-08 0.0007 1.14198e-08 0 1.14738e-08 0 1.14768e-08 0.0007 1.14798e-08 0 1.20138e-08 0 1.20168e-08 0.0007 1.20198e-08 0 1.20738e-08 0 1.20768e-08 0.0007 1.20798e-08 0 1.21338e-08 0 1.21368e-08 0.0007 1.21398e-08 0 1.21938e-08 0 1.21968e-08 0.0007 1.21998e-08 0 1.22538e-08 0 1.22568e-08 0.0007 1.22598e-08 0 1.23138e-08 0 1.23168e-08 0.0007 1.23198e-08 0 1.23738e-08 0 1.23768e-08 0.0007 1.23798e-08 0 1.24338e-08 0 1.24368e-08 0.0007 1.24398e-08 0 1.29738e-08 0 1.29768e-08 0.0007 1.29798e-08 0 1.30338e-08 0 1.30368e-08 0.0007 1.30398e-08 0 1.30938e-08 0 1.30968e-08 0.0007 1.30998e-08 0 1.31538e-08 0 1.31568e-08 0.0007 1.31598e-08 0 1.32138e-08 0 1.32168e-08 0.0007 1.32198e-08 0 1.32738e-08 0 1.32768e-08 0.0007 1.32798e-08 0 1.33338e-08 0 1.33368e-08 0.0007 1.33398e-08 0 1.33938e-08 0 1.33968e-08 0.0007 1.33998e-08 0 1.39338e-08 0 1.39368e-08 0.0007 1.39398e-08 0 1.39938e-08 0 1.39968e-08 0.0007 1.39998e-08 0 1.40538e-08 0 1.40568e-08 0.0007 1.40598e-08 0 1.41138e-08 0 1.41168e-08 0.0007 1.41198e-08 0 1.41738e-08 0 1.41768e-08 0.0007 1.41798e-08 0 1.42338e-08 0 1.42368e-08 0.0007 1.42398e-08 0 1.42938e-08 0 1.42968e-08 0.0007 1.42998e-08 0 1.43538e-08 0 1.43568e-08 0.0007 1.43598e-08 0 1.48938e-08 0 1.48968e-08 0.0007 1.48998e-08 0 1.49538e-08 0 1.49568e-08 0.0007 1.49598e-08 0 1.50138e-08 0 1.50168e-08 0.0007 1.50198e-08 0 1.50738e-08 0 1.50768e-08 0.0007 1.50798e-08 0 1.51338e-08 0 1.51368e-08 0.0007 1.51398e-08 0 1.51938e-08 0 1.51968e-08 0.0007 1.51998e-08 0 1.52538e-08 0 1.52568e-08 0.0007 1.52598e-08 0 1.53138e-08 0 1.53168e-08 0.0007 1.53198e-08 0)
IA2|E 0 A2_TX  PWL(0 0 9.738e-10 0 9.768e-10 0.0007 9.798e-10 0 1.0338e-09 0 1.0368e-09 0.0007 1.0398e-09 0 1.0938e-09 0 1.0968e-09 0.0007 1.0998e-09 0 1.1538e-09 0 1.1568e-09 0.0007 1.1598e-09 0 1.2138e-09 0 1.2168e-09 0.0007 1.2198e-09 0 1.2738e-09 0 1.2768e-09 0.0007 1.2798e-09 0 1.3338e-09 0 1.3368e-09 0.0007 1.3398e-09 0 1.3938e-09 0 1.3968e-09 0.0007 1.3998e-09 0 1.4538e-09 0 1.4568e-09 0.0007 1.4598e-09 0 1.5138e-09 0 1.5168e-09 0.0007 1.5198e-09 0 1.5738e-09 0 1.5768e-09 0.0007 1.5798e-09 0 1.6338e-09 0 1.6368e-09 0.0007 1.6398e-09 0 1.6938e-09 0 1.6968e-09 0.0007 1.6998e-09 0 1.7538e-09 0 1.7568e-09 0.0007 1.7598e-09 0 1.8138e-09 0 1.8168e-09 0.0007 1.8198e-09 0 1.8738e-09 0 1.8768e-09 0.0007 1.8798e-09 0 2.8938e-09 0 2.8968e-09 0.0007 2.8998e-09 0 2.9538e-09 0 2.9568e-09 0.0007 2.9598e-09 0 3.0138e-09 0 3.0168e-09 0.0007 3.0198e-09 0 3.0738e-09 0 3.0768e-09 0.0007 3.0798e-09 0 3.1338e-09 0 3.1368e-09 0.0007 3.1398e-09 0 3.1938e-09 0 3.1968e-09 0.0007 3.1998e-09 0 3.2538e-09 0 3.2568e-09 0.0007 3.2598e-09 0 3.3138e-09 0 3.3168e-09 0.0007 3.3198e-09 0 3.3738e-09 0 3.3768e-09 0.0007 3.3798e-09 0 3.4338e-09 0 3.4368e-09 0.0007 3.4398e-09 0 3.4938e-09 0 3.4968e-09 0.0007 3.4998e-09 0 3.5538e-09 0 3.5568e-09 0.0007 3.5598e-09 0 3.6138e-09 0 3.6168e-09 0.0007 3.6198e-09 0 3.6738e-09 0 3.6768e-09 0.0007 3.6798e-09 0 3.7338e-09 0 3.7368e-09 0.0007 3.7398e-09 0 3.7938e-09 0 3.7968e-09 0.0007 3.7998e-09 0 4.8138e-09 0 4.8168e-09 0.0007 4.8198e-09 0 4.8738e-09 0 4.8768e-09 0.0007 4.8798e-09 0 4.9338e-09 0 4.9368e-09 0.0007 4.9398e-09 0 4.9938e-09 0 4.9968e-09 0.0007 4.9998e-09 0 5.0538e-09 0 5.0568e-09 0.0007 5.0598e-09 0 5.1138e-09 0 5.1168e-09 0.0007 5.1198e-09 0 5.1738e-09 0 5.1768e-09 0.0007 5.1798e-09 0 5.2338e-09 0 5.2368e-09 0.0007 5.2398e-09 0 5.2938e-09 0 5.2968e-09 0.0007 5.2998e-09 0 5.3538e-09 0 5.3568e-09 0.0007 5.3598e-09 0 5.4138e-09 0 5.4168e-09 0.0007 5.4198e-09 0 5.4738e-09 0 5.4768e-09 0.0007 5.4798e-09 0 5.5338e-09 0 5.5368e-09 0.0007 5.5398e-09 0 5.5938e-09 0 5.5968e-09 0.0007 5.5998e-09 0 5.6538e-09 0 5.6568e-09 0.0007 5.6598e-09 0 5.7138e-09 0 5.7168e-09 0.0007 5.7198e-09 0 6.7338e-09 0 6.7368e-09 0.0007 6.7398e-09 0 6.7938e-09 0 6.7968e-09 0.0007 6.7998e-09 0 6.8538e-09 0 6.8568e-09 0.0007 6.8598e-09 0 6.9138e-09 0 6.9168e-09 0.0007 6.9198e-09 0 6.9738e-09 0 6.9768e-09 0.0007 6.9798e-09 0 7.0338e-09 0 7.0368e-09 0.0007 7.0398e-09 0 7.0938e-09 0 7.0968e-09 0.0007 7.0998e-09 0 7.1538e-09 0 7.1568e-09 0.0007 7.1598e-09 0 7.2138e-09 0 7.2168e-09 0.0007 7.2198e-09 0 7.2738e-09 0 7.2768e-09 0.0007 7.2798e-09 0 7.3338e-09 0 7.3368e-09 0.0007 7.3398e-09 0 7.3938e-09 0 7.3968e-09 0.0007 7.3998e-09 0 7.4538e-09 0 7.4568e-09 0.0007 7.4598e-09 0 7.5138e-09 0 7.5168e-09 0.0007 7.5198e-09 0 7.5738e-09 0 7.5768e-09 0.0007 7.5798e-09 0 7.6338e-09 0 7.6368e-09 0.0007 7.6398e-09 0 8.6538e-09 0 8.6568e-09 0.0007 8.6598e-09 0 8.7138e-09 0 8.7168e-09 0.0007 8.7198e-09 0 8.7738e-09 0 8.7768e-09 0.0007 8.7798e-09 0 8.8338e-09 0 8.8368e-09 0.0007 8.8398e-09 0 8.8938e-09 0 8.8968e-09 0.0007 8.8998e-09 0 8.9538e-09 0 8.9568e-09 0.0007 8.9598e-09 0 9.0138e-09 0 9.0168e-09 0.0007 9.0198e-09 0 9.0738e-09 0 9.0768e-09 0.0007 9.0798e-09 0 9.1338e-09 0 9.1368e-09 0.0007 9.1398e-09 0 9.1938e-09 0 9.1968e-09 0.0007 9.1998e-09 0 9.2538e-09 0 9.2568e-09 0.0007 9.2598e-09 0 9.3138e-09 0 9.3168e-09 0.0007 9.3198e-09 0 9.3738e-09 0 9.3768e-09 0.0007 9.3798e-09 0 9.4338e-09 0 9.4368e-09 0.0007 9.4398e-09 0 9.4938e-09 0 9.4968e-09 0.0007 9.4998e-09 0 9.5538e-09 0 9.5568e-09 0.0007 9.5598e-09 0 1.05738e-08 0 1.05768e-08 0.0007 1.05798e-08 0 1.06338e-08 0 1.06368e-08 0.0007 1.06398e-08 0 1.06938e-08 0 1.06968e-08 0.0007 1.06998e-08 0 1.07538e-08 0 1.07568e-08 0.0007 1.07598e-08 0 1.08138e-08 0 1.08168e-08 0.0007 1.08198e-08 0 1.08738e-08 0 1.08768e-08 0.0007 1.08798e-08 0 1.09338e-08 0 1.09368e-08 0.0007 1.09398e-08 0 1.09938e-08 0 1.09968e-08 0.0007 1.09998e-08 0 1.10538e-08 0 1.10568e-08 0.0007 1.10598e-08 0 1.11138e-08 0 1.11168e-08 0.0007 1.11198e-08 0 1.11738e-08 0 1.11768e-08 0.0007 1.11798e-08 0 1.12338e-08 0 1.12368e-08 0.0007 1.12398e-08 0 1.12938e-08 0 1.12968e-08 0.0007 1.12998e-08 0 1.13538e-08 0 1.13568e-08 0.0007 1.13598e-08 0 1.14138e-08 0 1.14168e-08 0.0007 1.14198e-08 0 1.14738e-08 0 1.14768e-08 0.0007 1.14798e-08 0 1.24938e-08 0 1.24968e-08 0.0007 1.24998e-08 0 1.25538e-08 0 1.25568e-08 0.0007 1.25598e-08 0 1.26138e-08 0 1.26168e-08 0.0007 1.26198e-08 0 1.26738e-08 0 1.26768e-08 0.0007 1.26798e-08 0 1.27338e-08 0 1.27368e-08 0.0007 1.27398e-08 0 1.27938e-08 0 1.27968e-08 0.0007 1.27998e-08 0 1.28538e-08 0 1.28568e-08 0.0007 1.28598e-08 0 1.29138e-08 0 1.29168e-08 0.0007 1.29198e-08 0 1.29738e-08 0 1.29768e-08 0.0007 1.29798e-08 0 1.30338e-08 0 1.30368e-08 0.0007 1.30398e-08 0 1.30938e-08 0 1.30968e-08 0.0007 1.30998e-08 0 1.31538e-08 0 1.31568e-08 0.0007 1.31598e-08 0 1.32138e-08 0 1.32168e-08 0.0007 1.32198e-08 0 1.32738e-08 0 1.32768e-08 0.0007 1.32798e-08 0 1.33338e-08 0 1.33368e-08 0.0007 1.33398e-08 0 1.33938e-08 0 1.33968e-08 0.0007 1.33998e-08 0 1.44138e-08 0 1.44168e-08 0.0007 1.44198e-08 0 1.44738e-08 0 1.44768e-08 0.0007 1.44798e-08 0 1.45338e-08 0 1.45368e-08 0.0007 1.45398e-08 0 1.45938e-08 0 1.45968e-08 0.0007 1.45998e-08 0 1.46538e-08 0 1.46568e-08 0.0007 1.46598e-08 0 1.47138e-08 0 1.47168e-08 0.0007 1.47198e-08 0 1.47738e-08 0 1.47768e-08 0.0007 1.47798e-08 0 1.48338e-08 0 1.48368e-08 0.0007 1.48398e-08 0 1.48938e-08 0 1.48968e-08 0.0007 1.48998e-08 0 1.49538e-08 0 1.49568e-08 0.0007 1.49598e-08 0 1.50138e-08 0 1.50168e-08 0.0007 1.50198e-08 0 1.50738e-08 0 1.50768e-08 0.0007 1.50798e-08 0 1.51338e-08 0 1.51368e-08 0.0007 1.51398e-08 0 1.51938e-08 0 1.51968e-08 0.0007 1.51998e-08 0 1.52538e-08 0 1.52568e-08 0.0007 1.52598e-08 0 1.53138e-08 0 1.53168e-08 0.0007 1.53198e-08 0)