*
.PARAM PHI0=2.067833848e-15
.PARAM B0=1
.PARAM IC0=0.0001
.PARAM ICRS=0.0006859904418
.PARAM B0RS=6.859904418
.PARAM RSHEET=2
.PARAM LSHEET=1.13e-12
.PARAM LP=2e-13
.PARAM LPTL=2e-12
.PARAM IC=2.5
.PARAM LB=2e-12
.PARAM BIASCOEF=0.7
.PARAM OS=1e-11
.PARAM TCLOCK=1e-10
.MODEL JJMIT JJ(RTYPE=1, VG=2.8MV, CAP=0.07PF, R0=160, RN=16, ICRIT=0.1MA)
.MODEL JJMIT JJ(RTYPE=1, VG=2.8MV, CAP=0.07PF, R0=160, RN=16, ICRIT=0.1MA)
.TRAN 0.25E-12 21E-10
RS0 S0 0  1
RS1 S1 0  1
RIG1 IG1_1 0  1
RS2 S2 0  1
RP1 P1_1 0  1
RG1 G1_1 0  1
IDATA_A0|A 0 A0  PWL(0 0 1.17e-10 0 1.2e-10 0.0005 1.23e-10 0 3.17e-10 0 3.2e-10 0.0005 3.23e-10 0 5.17e-10 0 5.2e-10 0.0005 5.23e-10 0 7.17e-10 0 7.2e-10 0.0005 7.23e-10 0 9.17e-10 0 9.2e-10 0.0005 9.23e-10 0 1.117e-09 0 1.12e-09 0.0005 1.123e-09 0 1.317e-09 0 1.32e-09 0.0005 1.323e-09 0 1.517e-09 0 1.52e-09 0.0005 1.523e-09 0 1.717e-09 0 1.72e-09 0.0005 1.723e-09 0 1.917e-09 0 1.92e-09 0.0005 1.923e-09 0 2.117e-09 0 2.12e-09 0.0005 2.123e-09 0 2.317e-09 0 2.32e-09 0.0005 2.323e-09 0 2.517e-09 0 2.52e-09 0.0005 2.523e-09 0 2.717e-09 0 2.72e-09 0.0005 2.723e-09 0 2.917e-09 0 2.92e-09 0.0005 2.923e-09 0 3.117e-09 0 3.12e-09 0.0005 3.123e-09 0 3.317e-09 0 3.32e-09 0.0005 3.323e-09 0 3.517e-09 0 3.52e-09 0.0005 3.523e-09 0 3.717e-09 0 3.72e-09 0.0005 3.723e-09 0)
IDATA_B0|B 0 B0  PWL(0 0 2.37e-10 0 2.4e-10 0.0005 2.43e-10 0 3.37e-10 0 3.4e-10 0.0005 3.43e-10 0 6.37e-10 0 6.4e-10 0.0005 6.43e-10 0 7.37e-10 0 7.4e-10 0.0005 7.43e-10 0 1.037e-09 0 1.04e-09 0.0005 1.043e-09 0 1.137e-09 0 1.14e-09 0.0005 1.143e-09 0 1.437e-09 0 1.44e-09 0.0005 1.443e-09 0 1.537e-09 0 1.54e-09 0.0005 1.543e-09 0 1.837e-09 0 1.84e-09 0.0005 1.843e-09 0 1.937e-09 0 1.94e-09 0.0005 1.943e-09 0 2.237e-09 0 2.24e-09 0.0005 2.243e-09 0 2.337e-09 0 2.34e-09 0.0005 2.343e-09 0 2.637e-09 0 2.64e-09 0.0005 2.643e-09 0 2.737e-09 0 2.74e-09 0.0005 2.743e-09 0 3.037e-09 0 3.04e-09 0.0005 3.043e-09 0 3.137e-09 0 3.14e-09 0.0005 3.143e-09 0 3.437e-09 0 3.44e-09 0.0005 3.443e-09 0 3.537e-09 0 3.54e-09 0.0005 3.543e-09 0 3.837e-09 0 3.84e-09 0.0005 3.843e-09 0)
IDATA_A1|C 0 A1  PWL(0 0 4.57e-10 0 4.6e-10 0.0005 4.63e-10 0 5.57e-10 0 5.6e-10 0.0005 5.63e-10 0 6.57e-10 0 6.6e-10 0.0005 6.63e-10 0 7.57e-10 0 7.6e-10 0.0005 7.63e-10 0 1.257e-09 0 1.26e-09 0.0005 1.263e-09 0 1.357e-09 0 1.36e-09 0.0005 1.363e-09 0 1.457e-09 0 1.46e-09 0.0005 1.463e-09 0 1.557e-09 0 1.56e-09 0.0005 1.563e-09 0 2.057e-09 0 2.06e-09 0.0005 2.063e-09 0 2.157e-09 0 2.16e-09 0.0005 2.163e-09 0 2.257e-09 0 2.26e-09 0.0005 2.263e-09 0 2.357e-09 0 2.36e-09 0.0005 2.363e-09 0 2.857e-09 0 2.86e-09 0.0005 2.863e-09 0 2.957e-09 0 2.96e-09 0.0005 2.963e-09 0 3.057e-09 0 3.06e-09 0.0005 3.063e-09 0 3.157e-09 0 3.16e-09 0.0005 3.163e-09 0 3.657e-09 0 3.66e-09 0.0005 3.663e-09 0 3.757e-09 0 3.76e-09 0.0005 3.763e-09 0 3.857e-09 0 3.86e-09 0.0005 3.863e-09 0)
IDATA_B1|D 0 B1  PWL(0 0 8.77e-10 0 8.8e-10 0.0005 8.83e-10 0 9.77e-10 0 9.8e-10 0.0005 9.83e-10 0 1.077e-09 0 1.08e-09 0.0005 1.083e-09 0 1.177e-09 0 1.18e-09 0.0005 1.183e-09 0 1.277e-09 0 1.28e-09 0.0005 1.283e-09 0 1.377e-09 0 1.38e-09 0.0005 1.383e-09 0 1.477e-09 0 1.48e-09 0.0005 1.483e-09 0 1.577e-09 0 1.58e-09 0.0005 1.583e-09 0 2.477e-09 0 2.48e-09 0.0005 2.483e-09 0 2.577e-09 0 2.58e-09 0.0005 2.583e-09 0 2.677e-09 0 2.68e-09 0.0005 2.683e-09 0 2.777e-09 0 2.78e-09 0.0005 2.783e-09 0 2.877e-09 0 2.88e-09 0.0005 2.883e-09 0 2.977e-09 0 2.98e-09 0.0005 2.983e-09 0 3.077e-09 0 3.08e-09 0.0005 3.083e-09 0 3.177e-09 0 3.18e-09 0.0005 3.183e-09 0)
IT1|T 0 CLK1  PWL(0 0 7e-12 0 1e-11 0.0015 1.3e-11 0 1.07e-10 0 1.1e-10 0.0015 1.13e-10 0 2.07e-10 0 2.1e-10 0.0015 2.13e-10 0 3.07e-10 0 3.1e-10 0.0015 3.13e-10 0 4.07e-10 0 4.1e-10 0.0015 4.13e-10 0 5.07e-10 0 5.1e-10 0.0015 5.13e-10 0 6.07e-10 0 6.1e-10 0.0015 6.13e-10 0 7.07e-10 0 7.1e-10 0.0015 7.13e-10 0 8.07e-10 0 8.1e-10 0.0015 8.13e-10 0 9.07e-10 0 9.1e-10 0.0015 9.13e-10 0 1.007e-09 0 1.01e-09 0.0015 1.013e-09 0 1.107e-09 0 1.11e-09 0.0015 1.113e-09 0 1.207e-09 0 1.21e-09 0.0015 1.213e-09 0 1.307e-09 0 1.31e-09 0.0015 1.313e-09 0 1.407e-09 0 1.41e-09 0.0015 1.413e-09 0 1.507e-09 0 1.51e-09 0.0015 1.513e-09 0 1.607e-09 0 1.61e-09 0.0015 1.613e-09 0 1.707e-09 0 1.71e-09 0.0015 1.713e-09 0 1.807e-09 0 1.81e-09 0.0015 1.813e-09 0 1.907e-09 0 1.91e-09 0.0015 1.913e-09 0 2.007e-09 0 2.01e-09 0.0015 2.013e-09 0 2.107e-09 0 2.11e-09 0.0015 2.113e-09 0 2.207e-09 0 2.21e-09 0.0015 2.213e-09 0 2.307e-09 0 2.31e-09 0.0015 2.313e-09 0 2.407e-09 0 2.41e-09 0.0015 2.413e-09 0 2.507e-09 0 2.51e-09 0.0015 2.513e-09 0 2.607e-09 0 2.61e-09 0.0015 2.613e-09 0 2.707e-09 0 2.71e-09 0.0015 2.713e-09 0 2.807e-09 0 2.81e-09 0.0015 2.813e-09 0 2.907e-09 0 2.91e-09 0.0015 2.913e-09 0 3.007e-09 0 3.01e-09 0.0015 3.013e-09 0 3.107e-09 0 3.11e-09 0.0015 3.113e-09 0 3.207e-09 0 3.21e-09 0.0015 3.213e-09 0 3.307e-09 0 3.31e-09 0.0015 3.313e-09 0 3.407e-09 0 3.41e-09 0.0015 3.413e-09 0 3.507e-09 0 3.51e-09 0.0015 3.513e-09 0 3.607e-09 0 3.61e-09 0.0015 3.613e-09 0 3.707e-09 0 3.71e-09 0.0015 3.713e-09 0 3.807e-09 0 3.81e-09 0.0015 3.813e-09 0)
IT2|T 0 CLK2  PWL(0 0 7e-12 0 1e-11 0.0015 1.3e-11 0 1.07e-10 0 1.1e-10 0.0015 1.13e-10 0 2.07e-10 0 2.1e-10 0.0015 2.13e-10 0 3.07e-10 0 3.1e-10 0.0015 3.13e-10 0 4.07e-10 0 4.1e-10 0.0015 4.13e-10 0 5.07e-10 0 5.1e-10 0.0015 5.13e-10 0 6.07e-10 0 6.1e-10 0.0015 6.13e-10 0 7.07e-10 0 7.1e-10 0.0015 7.13e-10 0 8.07e-10 0 8.1e-10 0.0015 8.13e-10 0 9.07e-10 0 9.1e-10 0.0015 9.13e-10 0 1.007e-09 0 1.01e-09 0.0015 1.013e-09 0 1.107e-09 0 1.11e-09 0.0015 1.113e-09 0 1.207e-09 0 1.21e-09 0.0015 1.213e-09 0 1.307e-09 0 1.31e-09 0.0015 1.313e-09 0 1.407e-09 0 1.41e-09 0.0015 1.413e-09 0 1.507e-09 0 1.51e-09 0.0015 1.513e-09 0 1.607e-09 0 1.61e-09 0.0015 1.613e-09 0 1.707e-09 0 1.71e-09 0.0015 1.713e-09 0 1.807e-09 0 1.81e-09 0.0015 1.813e-09 0 1.907e-09 0 1.91e-09 0.0015 1.913e-09 0 2.007e-09 0 2.01e-09 0.0015 2.013e-09 0 2.107e-09 0 2.11e-09 0.0015 2.113e-09 0 2.207e-09 0 2.21e-09 0.0015 2.213e-09 0 2.307e-09 0 2.31e-09 0.0015 2.313e-09 0 2.407e-09 0 2.41e-09 0.0015 2.413e-09 0 2.507e-09 0 2.51e-09 0.0015 2.513e-09 0 2.607e-09 0 2.61e-09 0.0015 2.613e-09 0 2.707e-09 0 2.71e-09 0.0015 2.713e-09 0 2.807e-09 0 2.81e-09 0.0015 2.813e-09 0 2.907e-09 0 2.91e-09 0.0015 2.913e-09 0 3.007e-09 0 3.01e-09 0.0015 3.013e-09 0 3.107e-09 0 3.11e-09 0.0015 3.113e-09 0 3.207e-09 0 3.21e-09 0.0015 3.213e-09 0 3.307e-09 0 3.31e-09 0.0015 3.313e-09 0 3.407e-09 0 3.41e-09 0.0015 3.413e-09 0 3.507e-09 0 3.51e-09 0.0015 3.513e-09 0 3.607e-09 0 3.61e-09 0.0015 3.613e-09 0 3.707e-09 0 3.71e-09 0.0015 3.713e-09 0 3.807e-09 0 3.81e-09 0.0015 3.813e-09 0)
L_SPL_P0|1 IP0_0 _SPL_P0|D1  2e-12
L_SPL_P0|2 _SPL_P0|D1 _SPL_P0|D2  4.135667696e-12
L_SPL_P0|3 _SPL_P0|D2 _SPL_P0|JCT  1.4770241771428573e-12
L_SPL_P0|4 _SPL_P0|JCT _SPL_P0|QA1  1.4770241771428573e-12
L_SPL_P0|5 _SPL_P0|QA1 IP0_0_B  2e-12
L_SPL_P0|6 _SPL_P0|JCT _SPL_P0|QB1  1.4770241771428573e-12
L_SPL_P0|7 _SPL_P0|QB1 IP0_0_W  2e-12
L_SPL_G0|1 IG0_0 _SPL_G0|D1  2e-12
L_SPL_G0|2 _SPL_G0|D1 _SPL_G0|D2  4.135667696e-12
L_SPL_G0|3 _SPL_G0|D2 _SPL_G0|JCT  1.4770241771428573e-12
L_SPL_G0|4 _SPL_G0|JCT _SPL_G0|QA1  1.4770241771428573e-12
L_SPL_G0|5 _SPL_G0|QA1 IG0_0_B  2e-12
L_SPL_G0|6 _SPL_G0|JCT _SPL_G0|QB1  1.4770241771428573e-12
L_SPL_G0|7 _SPL_G0|QB1 IG0_0_W  2e-12
L_SPL_P1|1 IP1_0 _SPL_P1|D1  2e-12
L_SPL_P1|2 _SPL_P1|D1 _SPL_P1|D2  4.135667696e-12
L_SPL_P1|3 _SPL_P1|D2 _SPL_P1|JCT  1.4770241771428573e-12
L_SPL_P1|4 _SPL_P1|JCT _SPL_P1|QA1  1.4770241771428573e-12
L_SPL_P1|5 _SPL_P1|QA1 IP1_0_B  2e-12
L_SPL_P1|6 _SPL_P1|JCT _SPL_P1|QB1  1.4770241771428573e-12
L_SPL_P1|7 _SPL_P1|QB1 IP1_0_W  2e-12
L_SPL_G1|1 IG1_0 _SPL_G1|D1  2e-12
L_SPL_G1|2 _SPL_G1|D1 _SPL_G1|D2  4.135667696e-12
L_SPL_G1|3 _SPL_G1|D2 _SPL_G1|JCT  1.4770241771428573e-12
L_SPL_G1|4 _SPL_G1|JCT _SPL_G1|QA1  1.4770241771428573e-12
L_SPL_G1|5 _SPL_G1|QA1 IG1_0_B  2e-12
L_SPL_G1|6 _SPL_G1|JCT _SPL_G1|QB1  1.4770241771428573e-12
L_SPL_G1|7 _SPL_G1|QB1 IG1_0_W  2e-12
IT3|T 0 CLK3  PWL(0 0 -3e-12 0 0 0.002 3e-12 0 9.7e-11 0 1e-10 0.002 1.03e-10 0 1.97e-10 0 2e-10 0.002 2.03e-10 0 2.97e-10 0 3e-10 0.002 3.03e-10 0 3.97e-10 0 4e-10 0.002 4.03e-10 0 4.97e-10 0 5e-10 0.002 5.03e-10 0 5.97e-10 0 6e-10 0.002 6.03e-10 0 6.97e-10 0 7e-10 0.002 7.03e-10 0 7.97e-10 0 8e-10 0.002 8.03e-10 0 8.97e-10 0 9e-10 0.002 9.03e-10 0 9.97e-10 0 1e-09 0.002 1.003e-09 0 1.097e-09 0 1.1e-09 0.002 1.103e-09 0 1.197e-09 0 1.2e-09 0.002 1.203e-09 0 1.297e-09 0 1.3e-09 0.002 1.303e-09 0 1.397e-09 0 1.4e-09 0.002 1.403e-09 0 1.497e-09 0 1.5e-09 0.002 1.503e-09 0 1.597e-09 0 1.6e-09 0.002 1.603e-09 0 1.697e-09 0 1.7e-09 0.002 1.703e-09 0 1.797e-09 0 1.8e-09 0.002 1.803e-09 0 1.897e-09 0 1.9e-09 0.002 1.903e-09 0 1.997e-09 0 2e-09 0.002 2.003e-09 0 2.097e-09 0 2.1e-09 0.002 2.103e-09 0 2.197e-09 0 2.2e-09 0.002 2.203e-09 0 2.297e-09 0 2.3e-09 0.002 2.303e-09 0 2.397e-09 0 2.4e-09 0.002 2.403e-09 0 2.497e-09 0 2.5e-09 0.002 2.503e-09 0 2.597e-09 0 2.6e-09 0.002 2.603e-09 0 2.697e-09 0 2.7e-09 0.002 2.703e-09 0 2.797e-09 0 2.8e-09 0.002 2.803e-09 0 2.897e-09 0 2.9e-09 0.002 2.903e-09 0 2.997e-09 0 3e-09 0.002 3.003e-09 0 3.097e-09 0 3.1e-09 0.002 3.103e-09 0 3.197e-09 0 3.2e-09 0.002 3.203e-09 0 3.297e-09 0 3.3e-09 0.002 3.303e-09 0 3.397e-09 0 3.4e-09 0.002 3.403e-09 0 3.497e-09 0 3.5e-09 0.002 3.503e-09 0 3.597e-09 0 3.6e-09 0.002 3.603e-09 0 3.697e-09 0 3.7e-09 0.002 3.703e-09 0 3.797e-09 0 3.8e-09 0.002 3.803e-09 0)
IT4|T 0 CLK4  PWL(0 0 -3e-12 0 0 0.0005 3e-12 0 9.7e-11 0 1e-10 0.0005 1.03e-10 0 1.97e-10 0 2e-10 0.0005 2.03e-10 0 2.97e-10 0 3e-10 0.0005 3.03e-10 0 3.97e-10 0 4e-10 0.0005 4.03e-10 0 4.97e-10 0 5e-10 0.0005 5.03e-10 0 5.97e-10 0 6e-10 0.0005 6.03e-10 0 6.97e-10 0 7e-10 0.0005 7.03e-10 0 7.97e-10 0 8e-10 0.0005 8.03e-10 0 8.97e-10 0 9e-10 0.0005 9.03e-10 0 9.97e-10 0 1e-09 0.0005 1.003e-09 0 1.097e-09 0 1.1e-09 0.0005 1.103e-09 0 1.197e-09 0 1.2e-09 0.0005 1.203e-09 0 1.297e-09 0 1.3e-09 0.0005 1.303e-09 0 1.397e-09 0 1.4e-09 0.0005 1.403e-09 0 1.497e-09 0 1.5e-09 0.0005 1.503e-09 0 1.597e-09 0 1.6e-09 0.0005 1.603e-09 0 1.697e-09 0 1.7e-09 0.0005 1.703e-09 0 1.797e-09 0 1.8e-09 0.0005 1.803e-09 0 1.897e-09 0 1.9e-09 0.0005 1.903e-09 0 1.997e-09 0 2e-09 0.0005 2.003e-09 0 2.097e-09 0 2.1e-09 0.0005 2.103e-09 0 2.197e-09 0 2.2e-09 0.0005 2.203e-09 0 2.297e-09 0 2.3e-09 0.0005 2.303e-09 0 2.397e-09 0 2.4e-09 0.0005 2.403e-09 0 2.497e-09 0 2.5e-09 0.0005 2.503e-09 0 2.597e-09 0 2.6e-09 0.0005 2.603e-09 0 2.697e-09 0 2.7e-09 0.0005 2.703e-09 0 2.797e-09 0 2.8e-09 0.0005 2.803e-09 0 2.897e-09 0 2.9e-09 0.0005 2.903e-09 0 2.997e-09 0 3e-09 0.0005 3.003e-09 0 3.097e-09 0 3.1e-09 0.0005 3.103e-09 0 3.197e-09 0 3.2e-09 0.0005 3.203e-09 0 3.297e-09 0 3.3e-09 0.0005 3.303e-09 0 3.397e-09 0 3.4e-09 0.0005 3.403e-09 0 3.497e-09 0 3.5e-09 0.0005 3.503e-09 0 3.597e-09 0 3.6e-09 0.0005 3.603e-09 0 3.697e-09 0 3.7e-09 0.0005 3.703e-09 0 3.797e-09 0 3.8e-09 0.0005 3.803e-09 0)
L_DFF_IP0_01|1 IP0_0_W _DFF_IP0_01|1  2.067833848e-12
L_DFF_IP0_01|2 _DFF_IP0_01|1 _DFF_IP0_01|2  4.135667696e-12
L_DFF_IP0_01|3 _DFF_IP0_01|3 _DFF_IP0_01|4  8.271335392e-12
L_DFF_IP0_01|4 _DFF_IP0_01|5 _DFF_IP0_01|T1  4.135667696e-12
L_DFF_IP0_01|T CLK4 _DFF_IP0_01|T1  2.067833848e-12
L_DFF_IP0_01|5 _DFF_IP0_01|4 _DFF_IP0_01|6  4.135667696e-12
L_DFF_IP0_01|6 _DFF_IP0_01|6 IP0_1  2.067833848e-12
IT5|T 0 CLK5  PWL(0 0 -1.3e-11 0 -1e-11 0.0005 -7e-12 0 8.7e-11 0 9e-11 0.0005 9.3e-11 0 1.87e-10 0 1.9e-10 0.0005 1.93e-10 0 2.87e-10 0 2.9e-10 0.0005 2.93e-10 0 3.87e-10 0 3.9e-10 0.0005 3.93e-10 0 4.87e-10 0 4.9e-10 0.0005 4.93e-10 0 5.87e-10 0 5.9e-10 0.0005 5.93e-10 0 6.87e-10 0 6.9e-10 0.0005 6.93e-10 0 7.87e-10 0 7.9e-10 0.0005 7.93e-10 0 8.87e-10 0 8.9e-10 0.0005 8.93e-10 0 9.87e-10 0 9.9e-10 0.0005 9.93e-10 0 1.087e-09 0 1.09e-09 0.0005 1.093e-09 0 1.187e-09 0 1.19e-09 0.0005 1.193e-09 0 1.287e-09 0 1.29e-09 0.0005 1.293e-09 0 1.387e-09 0 1.39e-09 0.0005 1.393e-09 0 1.487e-09 0 1.49e-09 0.0005 1.493e-09 0 1.587e-09 0 1.59e-09 0.0005 1.593e-09 0 1.687e-09 0 1.69e-09 0.0005 1.693e-09 0 1.787e-09 0 1.79e-09 0.0005 1.793e-09 0 1.887e-09 0 1.89e-09 0.0005 1.893e-09 0 1.987e-09 0 1.99e-09 0.0005 1.993e-09 0 2.087e-09 0 2.09e-09 0.0005 2.093e-09 0 2.187e-09 0 2.19e-09 0.0005 2.193e-09 0 2.287e-09 0 2.29e-09 0.0005 2.293e-09 0 2.387e-09 0 2.39e-09 0.0005 2.393e-09 0 2.487e-09 0 2.49e-09 0.0005 2.493e-09 0 2.587e-09 0 2.59e-09 0.0005 2.593e-09 0 2.687e-09 0 2.69e-09 0.0005 2.693e-09 0 2.787e-09 0 2.79e-09 0.0005 2.793e-09 0 2.887e-09 0 2.89e-09 0.0005 2.893e-09 0 2.987e-09 0 2.99e-09 0.0005 2.993e-09 0 3.087e-09 0 3.09e-09 0.0005 3.093e-09 0 3.187e-09 0 3.19e-09 0.0005 3.193e-09 0 3.287e-09 0 3.29e-09 0.0005 3.293e-09 0 3.387e-09 0 3.39e-09 0.0005 3.393e-09 0 3.487e-09 0 3.49e-09 0.0005 3.493e-09 0 3.587e-09 0 3.59e-09 0.0005 3.593e-09 0 3.687e-09 0 3.69e-09 0.0005 3.693e-09 0 3.787e-09 0 3.79e-09 0.0005 3.793e-09 0)
L_DFF_IP0_12|1 IP0_1 _DFF_IP0_12|1  2.067833848e-12
L_DFF_IP0_12|2 _DFF_IP0_12|1 _DFF_IP0_12|2  4.135667696e-12
L_DFF_IP0_12|3 _DFF_IP0_12|3 _DFF_IP0_12|4  8.271335392e-12
L_DFF_IP0_12|4 _DFF_IP0_12|5 _DFF_IP0_12|T1  4.135667696e-12
L_DFF_IP0_12|T CLK5 _DFF_IP0_12|T1  2.067833848e-12
L_DFF_IP0_12|5 _DFF_IP0_12|4 _DFF_IP0_12|6  4.135667696e-12
L_DFF_IP0_12|6 _DFF_IP0_12|6 S0  2.067833848e-12
IT6|T 0 CLK6  PWL(0 0 -3e-12 0 0 0.0005 3e-12 0 9.7e-11 0 1e-10 0.0005 1.03e-10 0 1.97e-10 0 2e-10 0.0005 2.03e-10 0 2.97e-10 0 3e-10 0.0005 3.03e-10 0 3.97e-10 0 4e-10 0.0005 4.03e-10 0 4.97e-10 0 5e-10 0.0005 5.03e-10 0 5.97e-10 0 6e-10 0.0005 6.03e-10 0 6.97e-10 0 7e-10 0.0005 7.03e-10 0 7.97e-10 0 8e-10 0.0005 8.03e-10 0 8.97e-10 0 9e-10 0.0005 9.03e-10 0 9.97e-10 0 1e-09 0.0005 1.003e-09 0 1.097e-09 0 1.1e-09 0.0005 1.103e-09 0 1.197e-09 0 1.2e-09 0.0005 1.203e-09 0 1.297e-09 0 1.3e-09 0.0005 1.303e-09 0 1.397e-09 0 1.4e-09 0.0005 1.403e-09 0 1.497e-09 0 1.5e-09 0.0005 1.503e-09 0 1.597e-09 0 1.6e-09 0.0005 1.603e-09 0 1.697e-09 0 1.7e-09 0.0005 1.703e-09 0 1.797e-09 0 1.8e-09 0.0005 1.803e-09 0 1.897e-09 0 1.9e-09 0.0005 1.903e-09 0 1.997e-09 0 2e-09 0.0005 2.003e-09 0 2.097e-09 0 2.1e-09 0.0005 2.103e-09 0 2.197e-09 0 2.2e-09 0.0005 2.203e-09 0 2.297e-09 0 2.3e-09 0.0005 2.303e-09 0 2.397e-09 0 2.4e-09 0.0005 2.403e-09 0 2.497e-09 0 2.5e-09 0.0005 2.503e-09 0 2.597e-09 0 2.6e-09 0.0005 2.603e-09 0 2.697e-09 0 2.7e-09 0.0005 2.703e-09 0 2.797e-09 0 2.8e-09 0.0005 2.803e-09 0 2.897e-09 0 2.9e-09 0.0005 2.903e-09 0 2.997e-09 0 3e-09 0.0005 3.003e-09 0 3.097e-09 0 3.1e-09 0.0005 3.103e-09 0 3.197e-09 0 3.2e-09 0.0005 3.203e-09 0 3.297e-09 0 3.3e-09 0.0005 3.303e-09 0 3.397e-09 0 3.4e-09 0.0005 3.403e-09 0 3.497e-09 0 3.5e-09 0.0005 3.503e-09 0 3.597e-09 0 3.6e-09 0.0005 3.603e-09 0 3.697e-09 0 3.7e-09 0.0005 3.703e-09 0 3.797e-09 0 3.8e-09 0.0005 3.803e-09 0)
L_DFF_IG0_01|1 IG0_0_W _DFF_IG0_01|1  2.067833848e-12
L_DFF_IG0_01|2 _DFF_IG0_01|1 _DFF_IG0_01|2  4.135667696e-12
L_DFF_IG0_01|3 _DFF_IG0_01|3 _DFF_IG0_01|4  8.271335392e-12
L_DFF_IG0_01|4 _DFF_IG0_01|5 _DFF_IG0_01|T1  4.135667696e-12
L_DFF_IG0_01|T CLK6 _DFF_IG0_01|T1  2.067833848e-12
L_DFF_IG0_01|5 _DFF_IG0_01|4 _DFF_IG0_01|6  4.135667696e-12
L_DFF_IG0_01|6 _DFF_IG0_01|6 IG0_1  2.067833848e-12
IT7|T 0 CLK7  PWL(0 0 -3e-12 0 0 0.0005 3e-12 0 9.7e-11 0 1e-10 0.0005 1.03e-10 0 1.97e-10 0 2e-10 0.0005 2.03e-10 0 2.97e-10 0 3e-10 0.0005 3.03e-10 0 3.97e-10 0 4e-10 0.0005 4.03e-10 0 4.97e-10 0 5e-10 0.0005 5.03e-10 0 5.97e-10 0 6e-10 0.0005 6.03e-10 0 6.97e-10 0 7e-10 0.0005 7.03e-10 0 7.97e-10 0 8e-10 0.0005 8.03e-10 0 8.97e-10 0 9e-10 0.0005 9.03e-10 0 9.97e-10 0 1e-09 0.0005 1.003e-09 0 1.097e-09 0 1.1e-09 0.0005 1.103e-09 0 1.197e-09 0 1.2e-09 0.0005 1.203e-09 0 1.297e-09 0 1.3e-09 0.0005 1.303e-09 0 1.397e-09 0 1.4e-09 0.0005 1.403e-09 0 1.497e-09 0 1.5e-09 0.0005 1.503e-09 0 1.597e-09 0 1.6e-09 0.0005 1.603e-09 0 1.697e-09 0 1.7e-09 0.0005 1.703e-09 0 1.797e-09 0 1.8e-09 0.0005 1.803e-09 0 1.897e-09 0 1.9e-09 0.0005 1.903e-09 0 1.997e-09 0 2e-09 0.0005 2.003e-09 0 2.097e-09 0 2.1e-09 0.0005 2.103e-09 0 2.197e-09 0 2.2e-09 0.0005 2.203e-09 0 2.297e-09 0 2.3e-09 0.0005 2.303e-09 0 2.397e-09 0 2.4e-09 0.0005 2.403e-09 0 2.497e-09 0 2.5e-09 0.0005 2.503e-09 0 2.597e-09 0 2.6e-09 0.0005 2.603e-09 0 2.697e-09 0 2.7e-09 0.0005 2.703e-09 0 2.797e-09 0 2.8e-09 0.0005 2.803e-09 0 2.897e-09 0 2.9e-09 0.0005 2.903e-09 0 2.997e-09 0 3e-09 0.0005 3.003e-09 0 3.097e-09 0 3.1e-09 0.0005 3.103e-09 0 3.197e-09 0 3.2e-09 0.0005 3.203e-09 0 3.297e-09 0 3.3e-09 0.0005 3.303e-09 0 3.397e-09 0 3.4e-09 0.0005 3.403e-09 0 3.497e-09 0 3.5e-09 0.0005 3.503e-09 0 3.597e-09 0 3.6e-09 0.0005 3.603e-09 0 3.697e-09 0 3.7e-09 0.0005 3.703e-09 0 3.797e-09 0 3.8e-09 0.0005 3.803e-09 0)
L_DFF_IP1_01|1 IP1_0_W _DFF_IP1_01|1  2.067833848e-12
L_DFF_IP1_01|2 _DFF_IP1_01|1 _DFF_IP1_01|2  4.135667696e-12
L_DFF_IP1_01|3 _DFF_IP1_01|3 _DFF_IP1_01|4  8.271335392e-12
L_DFF_IP1_01|4 _DFF_IP1_01|5 _DFF_IP1_01|T1  4.135667696e-12
L_DFF_IP1_01|T CLK7 _DFF_IP1_01|T1  2.067833848e-12
L_DFF_IP1_01|5 _DFF_IP1_01|4 _DFF_IP1_01|6  4.135667696e-12
L_DFF_IP1_01|6 _DFF_IP1_01|6 IP1_1  2.067833848e-12
IT8|T 0 CLK8  PWL(0 0 -1.3e-11 0 -1e-11 0.0005 -7e-12 0 8.7e-11 0 9e-11 0.0005 9.3e-11 0 1.87e-10 0 1.9e-10 0.0005 1.93e-10 0 2.87e-10 0 2.9e-10 0.0005 2.93e-10 0 3.87e-10 0 3.9e-10 0.0005 3.93e-10 0 4.87e-10 0 4.9e-10 0.0005 4.93e-10 0 5.87e-10 0 5.9e-10 0.0005 5.93e-10 0 6.87e-10 0 6.9e-10 0.0005 6.93e-10 0 7.87e-10 0 7.9e-10 0.0005 7.93e-10 0 8.87e-10 0 8.9e-10 0.0005 8.93e-10 0 9.87e-10 0 9.9e-10 0.0005 9.93e-10 0 1.087e-09 0 1.09e-09 0.0005 1.093e-09 0 1.187e-09 0 1.19e-09 0.0005 1.193e-09 0 1.287e-09 0 1.29e-09 0.0005 1.293e-09 0 1.387e-09 0 1.39e-09 0.0005 1.393e-09 0 1.487e-09 0 1.49e-09 0.0005 1.493e-09 0 1.587e-09 0 1.59e-09 0.0005 1.593e-09 0 1.687e-09 0 1.69e-09 0.0005 1.693e-09 0 1.787e-09 0 1.79e-09 0.0005 1.793e-09 0 1.887e-09 0 1.89e-09 0.0005 1.893e-09 0 1.987e-09 0 1.99e-09 0.0005 1.993e-09 0 2.087e-09 0 2.09e-09 0.0005 2.093e-09 0 2.187e-09 0 2.19e-09 0.0005 2.193e-09 0 2.287e-09 0 2.29e-09 0.0005 2.293e-09 0 2.387e-09 0 2.39e-09 0.0005 2.393e-09 0 2.487e-09 0 2.49e-09 0.0005 2.493e-09 0 2.587e-09 0 2.59e-09 0.0005 2.593e-09 0 2.687e-09 0 2.69e-09 0.0005 2.693e-09 0 2.787e-09 0 2.79e-09 0.0005 2.793e-09 0 2.887e-09 0 2.89e-09 0.0005 2.893e-09 0 2.987e-09 0 2.99e-09 0.0005 2.993e-09 0 3.087e-09 0 3.09e-09 0.0005 3.093e-09 0 3.187e-09 0 3.19e-09 0.0005 3.193e-09 0 3.287e-09 0 3.29e-09 0.0005 3.293e-09 0 3.387e-09 0 3.39e-09 0.0005 3.393e-09 0 3.487e-09 0 3.49e-09 0.0005 3.493e-09 0 3.587e-09 0 3.59e-09 0.0005 3.593e-09 0 3.687e-09 0 3.69e-09 0.0005 3.693e-09 0 3.787e-09 0 3.79e-09 0.0005 3.793e-09 0)
L_XOR_S1|A1 IG0_1 _XOR_S1|A1  2.067833848e-12
L_XOR_S1|A2 _XOR_S1|A1 _XOR_S1|A2  4.135667696e-12
L_XOR_S1|A3 _XOR_S1|A3 _XOR_S1|AB  8.271335392e-12
L_XOR_S1|B1 IP1_1 _XOR_S1|B1  2.067833848e-12
L_XOR_S1|B2 _XOR_S1|B1 _XOR_S1|B2  4.135667696e-12
L_XOR_S1|B3 _XOR_S1|B3 _XOR_S1|AB  8.271335392e-12
L_XOR_S1|T1 CLK8 _XOR_S1|T1  2.067833848e-12
L_XOR_S1|T2 _XOR_S1|T1 _XOR_S1|T2  4.135667696e-12
L_XOR_S1|Q2 _XOR_S1|ABTQ _XOR_S1|Q1  4.135667696e-12
L_XOR_S1|Q1 _XOR_S1|Q1 S1  2.067833848e-12
IT9|T 0 CLK9  PWL(0 0 -3e-12 0 0 0.0005 3e-12 0 9.7e-11 0 1e-10 0.0005 1.03e-10 0 1.97e-10 0 2e-10 0.0005 2.03e-10 0 2.97e-10 0 3e-10 0.0005 3.03e-10 0 3.97e-10 0 4e-10 0.0005 4.03e-10 0 4.97e-10 0 5e-10 0.0005 5.03e-10 0 5.97e-10 0 6e-10 0.0005 6.03e-10 0 6.97e-10 0 7e-10 0.0005 7.03e-10 0 7.97e-10 0 8e-10 0.0005 8.03e-10 0 8.97e-10 0 9e-10 0.0005 9.03e-10 0 9.97e-10 0 1e-09 0.0005 1.003e-09 0 1.097e-09 0 1.1e-09 0.0005 1.103e-09 0 1.197e-09 0 1.2e-09 0.0005 1.203e-09 0 1.297e-09 0 1.3e-09 0.0005 1.303e-09 0 1.397e-09 0 1.4e-09 0.0005 1.403e-09 0 1.497e-09 0 1.5e-09 0.0005 1.503e-09 0 1.597e-09 0 1.6e-09 0.0005 1.603e-09 0 1.697e-09 0 1.7e-09 0.0005 1.703e-09 0 1.797e-09 0 1.8e-09 0.0005 1.803e-09 0 1.897e-09 0 1.9e-09 0.0005 1.903e-09 0 1.997e-09 0 2e-09 0.0005 2.003e-09 0 2.097e-09 0 2.1e-09 0.0005 2.103e-09 0 2.197e-09 0 2.2e-09 0.0005 2.203e-09 0 2.297e-09 0 2.3e-09 0.0005 2.303e-09 0 2.397e-09 0 2.4e-09 0.0005 2.403e-09 0 2.497e-09 0 2.5e-09 0.0005 2.503e-09 0 2.597e-09 0 2.6e-09 0.0005 2.603e-09 0 2.697e-09 0 2.7e-09 0.0005 2.703e-09 0 2.797e-09 0 2.8e-09 0.0005 2.803e-09 0 2.897e-09 0 2.9e-09 0.0005 2.903e-09 0 2.997e-09 0 3e-09 0.0005 3.003e-09 0 3.097e-09 0 3.1e-09 0.0005 3.103e-09 0 3.197e-09 0 3.2e-09 0.0005 3.203e-09 0 3.297e-09 0 3.3e-09 0.0005 3.303e-09 0 3.397e-09 0 3.4e-09 0.0005 3.403e-09 0 3.497e-09 0 3.5e-09 0.0005 3.503e-09 0 3.597e-09 0 3.6e-09 0.0005 3.603e-09 0 3.697e-09 0 3.7e-09 0.0005 3.703e-09 0 3.797e-09 0 3.8e-09 0.0005 3.803e-09 0)
L_DFF_IG1_01|1 IG1_0_W _DFF_IG1_01|1  2.067833848e-12
L_DFF_IG1_01|2 _DFF_IG1_01|1 _DFF_IG1_01|2  4.135667696e-12
L_DFF_IG1_01|3 _DFF_IG1_01|3 _DFF_IG1_01|4  8.271335392e-12
L_DFF_IG1_01|4 _DFF_IG1_01|5 _DFF_IG1_01|T1  4.135667696e-12
L_DFF_IG1_01|T CLK9 _DFF_IG1_01|T1  2.067833848e-12
L_DFF_IG1_01|5 _DFF_IG1_01|4 _DFF_IG1_01|6  4.135667696e-12
L_DFF_IG1_01|6 _DFF_IG1_01|6 IG1_1  2.067833848e-12
IT10|T 0 CLK10  PWL(0 0 -1.3e-11 0 -1e-11 0.0005 -7e-12 0 8.7e-11 0 9e-11 0.0005 9.3e-11 0 1.87e-10 0 1.9e-10 0.0005 1.93e-10 0 2.87e-10 0 2.9e-10 0.0005 2.93e-10 0 3.87e-10 0 3.9e-10 0.0005 3.93e-10 0 4.87e-10 0 4.9e-10 0.0005 4.93e-10 0 5.87e-10 0 5.9e-10 0.0005 5.93e-10 0 6.87e-10 0 6.9e-10 0.0005 6.93e-10 0 7.87e-10 0 7.9e-10 0.0005 7.93e-10 0 8.87e-10 0 8.9e-10 0.0005 8.93e-10 0 9.87e-10 0 9.9e-10 0.0005 9.93e-10 0 1.087e-09 0 1.09e-09 0.0005 1.093e-09 0 1.187e-09 0 1.19e-09 0.0005 1.193e-09 0 1.287e-09 0 1.29e-09 0.0005 1.293e-09 0 1.387e-09 0 1.39e-09 0.0005 1.393e-09 0 1.487e-09 0 1.49e-09 0.0005 1.493e-09 0 1.587e-09 0 1.59e-09 0.0005 1.593e-09 0 1.687e-09 0 1.69e-09 0.0005 1.693e-09 0 1.787e-09 0 1.79e-09 0.0005 1.793e-09 0 1.887e-09 0 1.89e-09 0.0005 1.893e-09 0 1.987e-09 0 1.99e-09 0.0005 1.993e-09 0 2.087e-09 0 2.09e-09 0.0005 2.093e-09 0 2.187e-09 0 2.19e-09 0.0005 2.193e-09 0 2.287e-09 0 2.29e-09 0.0005 2.293e-09 0 2.387e-09 0 2.39e-09 0.0005 2.393e-09 0 2.487e-09 0 2.49e-09 0.0005 2.493e-09 0 2.587e-09 0 2.59e-09 0.0005 2.593e-09 0 2.687e-09 0 2.69e-09 0.0005 2.693e-09 0 2.787e-09 0 2.79e-09 0.0005 2.793e-09 0 2.887e-09 0 2.89e-09 0.0005 2.893e-09 0 2.987e-09 0 2.99e-09 0.0005 2.993e-09 0 3.087e-09 0 3.09e-09 0.0005 3.093e-09 0 3.187e-09 0 3.19e-09 0.0005 3.193e-09 0 3.287e-09 0 3.29e-09 0.0005 3.293e-09 0 3.387e-09 0 3.39e-09 0.0005 3.393e-09 0 3.487e-09 0 3.49e-09 0.0005 3.493e-09 0 3.587e-09 0 3.59e-09 0.0005 3.593e-09 0 3.687e-09 0 3.69e-09 0.0005 3.693e-09 0 3.787e-09 0 3.79e-09 0.0005 3.793e-09 0)
L_DFF_S2|1 G1_1 _DFF_S2|1  2.067833848e-12
L_DFF_S2|2 _DFF_S2|1 _DFF_S2|2  4.135667696e-12
L_DFF_S2|3 _DFF_S2|3 _DFF_S2|4  8.271335392e-12
L_DFF_S2|4 _DFF_S2|5 _DFF_S2|T1  4.135667696e-12
L_DFF_S2|T CLK10 _DFF_S2|T1  2.067833848e-12
L_DFF_S2|5 _DFF_S2|4 _DFF_S2|6  4.135667696e-12
L_DFF_S2|6 _DFF_S2|6 S2  2.067833848e-12
L_INITIAL_0|_SPL_A|1 A0 _INITIAL_0|_SPL_A|D1  2e-12
L_INITIAL_0|_SPL_A|2 _INITIAL_0|_SPL_A|D1 _INITIAL_0|_SPL_A|D2  4.135667696e-12
L_INITIAL_0|_SPL_A|3 _INITIAL_0|_SPL_A|D2 _INITIAL_0|_SPL_A|JCT  1.4770241771428573e-12
L_INITIAL_0|_SPL_A|4 _INITIAL_0|_SPL_A|JCT _INITIAL_0|_SPL_A|QA1  1.4770241771428573e-12
L_INITIAL_0|_SPL_A|5 _INITIAL_0|_SPL_A|QA1 _INITIAL_0|A1  2e-12
L_INITIAL_0|_SPL_A|6 _INITIAL_0|_SPL_A|JCT _INITIAL_0|_SPL_A|QB1  1.4770241771428573e-12
L_INITIAL_0|_SPL_A|7 _INITIAL_0|_SPL_A|QB1 _INITIAL_0|A2  2e-12
L_INITIAL_0|_SPL_B|1 B0 _INITIAL_0|_SPL_B|D1  2e-12
L_INITIAL_0|_SPL_B|2 _INITIAL_0|_SPL_B|D1 _INITIAL_0|_SPL_B|D2  4.135667696e-12
L_INITIAL_0|_SPL_B|3 _INITIAL_0|_SPL_B|D2 _INITIAL_0|_SPL_B|JCT  1.4770241771428573e-12
L_INITIAL_0|_SPL_B|4 _INITIAL_0|_SPL_B|JCT _INITIAL_0|_SPL_B|QA1  1.4770241771428573e-12
L_INITIAL_0|_SPL_B|5 _INITIAL_0|_SPL_B|QA1 _INITIAL_0|B1  2e-12
L_INITIAL_0|_SPL_B|6 _INITIAL_0|_SPL_B|JCT _INITIAL_0|_SPL_B|QB1  1.4770241771428573e-12
L_INITIAL_0|_SPL_B|7 _INITIAL_0|_SPL_B|QB1 _INITIAL_0|B2  2e-12
L_INITIAL_0|_DFF_A|1 _INITIAL_0|A1 _INITIAL_0|_DFF_A|1  2.067833848e-12
L_INITIAL_0|_DFF_A|2 _INITIAL_0|_DFF_A|1 _INITIAL_0|_DFF_A|2  4.135667696e-12
L_INITIAL_0|_DFF_A|3 _INITIAL_0|_DFF_A|3 _INITIAL_0|_DFF_A|4  8.271335392e-12
L_INITIAL_0|_DFF_A|4 _INITIAL_0|_DFF_A|5 _INITIAL_0|_DFF_A|T1  4.135667696e-12
L_INITIAL_0|_DFF_A|T CLK1 _INITIAL_0|_DFF_A|T1  2.067833848e-12
L_INITIAL_0|_DFF_A|5 _INITIAL_0|_DFF_A|4 _INITIAL_0|_DFF_A|6  4.135667696e-12
L_INITIAL_0|_DFF_A|6 _INITIAL_0|_DFF_A|6 _INITIAL_0|A1_SYNC  2.067833848e-12
L_INITIAL_0|_DFF_B|1 _INITIAL_0|B1 _INITIAL_0|_DFF_B|1  2.067833848e-12
L_INITIAL_0|_DFF_B|2 _INITIAL_0|_DFF_B|1 _INITIAL_0|_DFF_B|2  4.135667696e-12
L_INITIAL_0|_DFF_B|3 _INITIAL_0|_DFF_B|3 _INITIAL_0|_DFF_B|4  8.271335392e-12
L_INITIAL_0|_DFF_B|4 _INITIAL_0|_DFF_B|5 _INITIAL_0|_DFF_B|T1  4.135667696e-12
L_INITIAL_0|_DFF_B|T CLK1 _INITIAL_0|_DFF_B|T1  2.067833848e-12
L_INITIAL_0|_DFF_B|5 _INITIAL_0|_DFF_B|4 _INITIAL_0|_DFF_B|6  4.135667696e-12
L_INITIAL_0|_DFF_B|6 _INITIAL_0|_DFF_B|6 _INITIAL_0|B1_SYNC  2.067833848e-12
L_INITIAL_0|_XOR|A1 _INITIAL_0|A2 _INITIAL_0|_XOR|A1  2.067833848e-12
L_INITIAL_0|_XOR|A2 _INITIAL_0|_XOR|A1 _INITIAL_0|_XOR|A2  4.135667696e-12
L_INITIAL_0|_XOR|A3 _INITIAL_0|_XOR|A3 _INITIAL_0|_XOR|AB  8.271335392e-12
L_INITIAL_0|_XOR|B1 _INITIAL_0|B2 _INITIAL_0|_XOR|B1  2.067833848e-12
L_INITIAL_0|_XOR|B2 _INITIAL_0|_XOR|B1 _INITIAL_0|_XOR|B2  4.135667696e-12
L_INITIAL_0|_XOR|B3 _INITIAL_0|_XOR|B3 _INITIAL_0|_XOR|AB  8.271335392e-12
L_INITIAL_0|_XOR|T1 CLK1 _INITIAL_0|_XOR|T1  2.067833848e-12
L_INITIAL_0|_XOR|T2 _INITIAL_0|_XOR|T1 _INITIAL_0|_XOR|T2  4.135667696e-12
L_INITIAL_0|_XOR|Q2 _INITIAL_0|_XOR|ABTQ _INITIAL_0|_XOR|Q1  4.135667696e-12
L_INITIAL_0|_XOR|Q1 _INITIAL_0|_XOR|Q1 IP0_0  2.067833848e-12
L_INITIAL_0|_AND|A1 _INITIAL_0|A1_SYNC _INITIAL_0|_AND|A1  2.067833848e-12
L_INITIAL_0|_AND|A2 _INITIAL_0|_AND|A1 _INITIAL_0|_AND|A2  4.135667696e-12
L_INITIAL_0|_AND|A3 _INITIAL_0|_AND|A3 _INITIAL_0|_AND|Q3  1.2e-12
L_INITIAL_0|_AND|B1 _INITIAL_0|B1_SYNC _INITIAL_0|_AND|B1  2.067833848e-12
L_INITIAL_0|_AND|B2 _INITIAL_0|_AND|B1 _INITIAL_0|_AND|B2  4.135667696e-12
L_INITIAL_0|_AND|B3 _INITIAL_0|_AND|B3 _INITIAL_0|_AND|Q3  1.2e-12
L_INITIAL_0|_AND|Q3 _INITIAL_0|_AND|Q3 _INITIAL_0|_AND|Q2  4.135667696e-12
L_INITIAL_0|_AND|Q2 _INITIAL_0|_AND|Q2 _INITIAL_0|_AND|Q1  4.135667696e-12
L_INITIAL_0|_AND|Q1 _INITIAL_0|_AND|Q1 IG0_0  2.067833848e-12
L_INITIAL_1|_SPL_A|1 A1 _INITIAL_1|_SPL_A|D1  2e-12
L_INITIAL_1|_SPL_A|2 _INITIAL_1|_SPL_A|D1 _INITIAL_1|_SPL_A|D2  4.135667696e-12
L_INITIAL_1|_SPL_A|3 _INITIAL_1|_SPL_A|D2 _INITIAL_1|_SPL_A|JCT  1.4770241771428573e-12
L_INITIAL_1|_SPL_A|4 _INITIAL_1|_SPL_A|JCT _INITIAL_1|_SPL_A|QA1  1.4770241771428573e-12
L_INITIAL_1|_SPL_A|5 _INITIAL_1|_SPL_A|QA1 _INITIAL_1|A1  2e-12
L_INITIAL_1|_SPL_A|6 _INITIAL_1|_SPL_A|JCT _INITIAL_1|_SPL_A|QB1  1.4770241771428573e-12
L_INITIAL_1|_SPL_A|7 _INITIAL_1|_SPL_A|QB1 _INITIAL_1|A2  2e-12
L_INITIAL_1|_SPL_B|1 B1 _INITIAL_1|_SPL_B|D1  2e-12
L_INITIAL_1|_SPL_B|2 _INITIAL_1|_SPL_B|D1 _INITIAL_1|_SPL_B|D2  4.135667696e-12
L_INITIAL_1|_SPL_B|3 _INITIAL_1|_SPL_B|D2 _INITIAL_1|_SPL_B|JCT  1.4770241771428573e-12
L_INITIAL_1|_SPL_B|4 _INITIAL_1|_SPL_B|JCT _INITIAL_1|_SPL_B|QA1  1.4770241771428573e-12
L_INITIAL_1|_SPL_B|5 _INITIAL_1|_SPL_B|QA1 _INITIAL_1|B1  2e-12
L_INITIAL_1|_SPL_B|6 _INITIAL_1|_SPL_B|JCT _INITIAL_1|_SPL_B|QB1  1.4770241771428573e-12
L_INITIAL_1|_SPL_B|7 _INITIAL_1|_SPL_B|QB1 _INITIAL_1|B2  2e-12
L_INITIAL_1|_DFF_A|1 _INITIAL_1|A1 _INITIAL_1|_DFF_A|1  2.067833848e-12
L_INITIAL_1|_DFF_A|2 _INITIAL_1|_DFF_A|1 _INITIAL_1|_DFF_A|2  4.135667696e-12
L_INITIAL_1|_DFF_A|3 _INITIAL_1|_DFF_A|3 _INITIAL_1|_DFF_A|4  8.271335392e-12
L_INITIAL_1|_DFF_A|4 _INITIAL_1|_DFF_A|5 _INITIAL_1|_DFF_A|T1  4.135667696e-12
L_INITIAL_1|_DFF_A|T CLK2 _INITIAL_1|_DFF_A|T1  2.067833848e-12
L_INITIAL_1|_DFF_A|5 _INITIAL_1|_DFF_A|4 _INITIAL_1|_DFF_A|6  4.135667696e-12
L_INITIAL_1|_DFF_A|6 _INITIAL_1|_DFF_A|6 _INITIAL_1|A1_SYNC  2.067833848e-12
L_INITIAL_1|_DFF_B|1 _INITIAL_1|B1 _INITIAL_1|_DFF_B|1  2.067833848e-12
L_INITIAL_1|_DFF_B|2 _INITIAL_1|_DFF_B|1 _INITIAL_1|_DFF_B|2  4.135667696e-12
L_INITIAL_1|_DFF_B|3 _INITIAL_1|_DFF_B|3 _INITIAL_1|_DFF_B|4  8.271335392e-12
L_INITIAL_1|_DFF_B|4 _INITIAL_1|_DFF_B|5 _INITIAL_1|_DFF_B|T1  4.135667696e-12
L_INITIAL_1|_DFF_B|T CLK2 _INITIAL_1|_DFF_B|T1  2.067833848e-12
L_INITIAL_1|_DFF_B|5 _INITIAL_1|_DFF_B|4 _INITIAL_1|_DFF_B|6  4.135667696e-12
L_INITIAL_1|_DFF_B|6 _INITIAL_1|_DFF_B|6 _INITIAL_1|B1_SYNC  2.067833848e-12
L_INITIAL_1|_XOR|A1 _INITIAL_1|A2 _INITIAL_1|_XOR|A1  2.067833848e-12
L_INITIAL_1|_XOR|A2 _INITIAL_1|_XOR|A1 _INITIAL_1|_XOR|A2  4.135667696e-12
L_INITIAL_1|_XOR|A3 _INITIAL_1|_XOR|A3 _INITIAL_1|_XOR|AB  8.271335392e-12
L_INITIAL_1|_XOR|B1 _INITIAL_1|B2 _INITIAL_1|_XOR|B1  2.067833848e-12
L_INITIAL_1|_XOR|B2 _INITIAL_1|_XOR|B1 _INITIAL_1|_XOR|B2  4.135667696e-12
L_INITIAL_1|_XOR|B3 _INITIAL_1|_XOR|B3 _INITIAL_1|_XOR|AB  8.271335392e-12
L_INITIAL_1|_XOR|T1 CLK2 _INITIAL_1|_XOR|T1  2.067833848e-12
L_INITIAL_1|_XOR|T2 _INITIAL_1|_XOR|T1 _INITIAL_1|_XOR|T2  4.135667696e-12
L_INITIAL_1|_XOR|Q2 _INITIAL_1|_XOR|ABTQ _INITIAL_1|_XOR|Q1  4.135667696e-12
L_INITIAL_1|_XOR|Q1 _INITIAL_1|_XOR|Q1 IP1_0  2.067833848e-12
L_INITIAL_1|_AND|A1 _INITIAL_1|A1_SYNC _INITIAL_1|_AND|A1  2.067833848e-12
L_INITIAL_1|_AND|A2 _INITIAL_1|_AND|A1 _INITIAL_1|_AND|A2  4.135667696e-12
L_INITIAL_1|_AND|A3 _INITIAL_1|_AND|A3 _INITIAL_1|_AND|Q3  1.2e-12
L_INITIAL_1|_AND|B1 _INITIAL_1|B1_SYNC _INITIAL_1|_AND|B1  2.067833848e-12
L_INITIAL_1|_AND|B2 _INITIAL_1|_AND|B1 _INITIAL_1|_AND|B2  4.135667696e-12
L_INITIAL_1|_AND|B3 _INITIAL_1|_AND|B3 _INITIAL_1|_AND|Q3  1.2e-12
L_INITIAL_1|_AND|Q3 _INITIAL_1|_AND|Q3 _INITIAL_1|_AND|Q2  4.135667696e-12
L_INITIAL_1|_AND|Q2 _INITIAL_1|_AND|Q2 _INITIAL_1|_AND|Q1  4.135667696e-12
L_INITIAL_1|_AND|Q1 _INITIAL_1|_AND|Q1 IG1_0  2.067833848e-12
L_SPL_P0|I_D1|B _SPL_P0|D1 _SPL_P0|I_D1|MID  2e-12
I_SPL_P0|I_D1|B 0 _SPL_P0|I_D1|MID  0.000175
L_SPL_P0|I_D2|B _SPL_P0|D2 _SPL_P0|I_D2|MID  2e-12
I_SPL_P0|I_D2|B 0 _SPL_P0|I_D2|MID  0.000245
L_SPL_P0|I_Q1|B _SPL_P0|QA1 _SPL_P0|I_Q1|MID  2e-12
I_SPL_P0|I_Q1|B 0 _SPL_P0|I_Q1|MID  0.000175