*
.PARAM PHI0=2.067833848e-15
.PARAM B0=1
.PARAM IC0=0.0001
.PARAM ICRS=0.0006859904418
.PARAM B0RS=6.859904418
.PARAM RSHEET=2
.PARAM LSHEET=1.13e-12
.PARAM LP=2e-13
.PARAM LPTL=2e-12
.PARAM IC=2.5
.PARAM LB=2e-12
.PARAM BIASCOEF=0.7
.PARAM TCLOCK=2e-10
.PARAM OS=1.0000000000000001e-11
.PARAM STEP=0.08
.MODEL JJMIT JJ(RTYPE=1, VG=2.8MV, CAP=0.07PF, R0=160, RN=16, ICRIT=0.1MA)
.MODEL JJMIT JJ(RTYPE=1, VG=2.8MV, CAP=0.07PF, R0=160, RN=16, ICRIT=0.1MA)
.TRAN 0.5E-12 2000E-12
R_S0 S0_5 0  1
R_S1 S1_5 0  1
R_S2 S2_5 0  1
R_S3 S3_5 0  1
R_S4 S4_5 0  1
R_S5 S5_5 0  1
R_S6 S6_5 0  1
R_S7 S7_5 0  1
R_S8 S8_5 0  1
IA0|A 0 A0_TX  PWL(0 0 2.63e-10 0 2.66e-10 0.0007 2.69e-10 0 6.63e-10 0 6.66e-10 0.0007 6.69e-10 0 1.063e-09 0 1.066e-09 0.0007 1.069e-09 0 1.463e-09 0 1.466e-09 0.0007 1.469e-09 0 1.863e-09 0 1.866e-09 0.0007 1.869e-09 0 2.263e-09 0 2.266e-09 0.0007 2.269e-09 0 2.663e-09 0 2.666e-09 0.0007 2.669e-09 0 3.063e-09 0 3.066e-09 0.0007 3.069e-09 0 3.463e-09 0 3.466e-09 0.0007 3.469e-09 0 3.863e-09 0 3.866e-09 0.0007 3.869e-09 0 4.263e-09 0 4.266e-09 0.0007 4.269e-09 0 4.663e-09 0 4.666e-09 0.0007 4.669e-09 0 5.063e-09 0 5.066e-09 0.0007 5.069e-09 0 5.463e-09 0 5.466e-09 0.0007 5.469e-09 0 5.863e-09 0 5.866e-09 0.0007 5.869e-09 0 6.263e-09 0 6.266e-09 0.0007 6.269e-09 0 6.663e-09 0 6.666e-09 0.0007 6.669e-09 0 7.063e-09 0 7.066e-09 0.0007 7.069e-09 0 7.463e-09 0 7.466e-09 0.0007 7.469e-09 0 7.863e-09 0 7.866e-09 0.0007 7.869e-09 0 8.263e-09 0 8.266e-09 0.0007 8.269e-09 0 8.663e-09 0 8.666e-09 0.0007 8.669e-09 0 9.063e-09 0 9.066e-09 0.0007 9.069e-09 0 9.463e-09 0 9.466e-09 0.0007 9.469e-09 0 9.863e-09 0 9.866e-09 0.0007 9.869e-09 0 1.0263e-08 0 1.0266e-08 0.0007 1.0269e-08 0 1.0663e-08 0 1.0666e-08 0.0007 1.0669e-08 0 1.1063e-08 0 1.1066e-08 0.0007 1.1069e-08 0 1.1463e-08 0 1.1466e-08 0.0007 1.1469e-08 0 1.1863e-08 0 1.1866e-08 0.0007 1.1869e-08 0 1.2263e-08 0 1.2266e-08 0.0007 1.2269e-08 0 1.2663e-08 0 1.2666e-08 0.0007 1.2669e-08 0 1.3063e-08 0 1.3066e-08 0.0007 1.3069e-08 0 1.3463e-08 0 1.3466e-08 0.0007 1.3469e-08 0 1.3863e-08 0 1.3866e-08 0.0007 1.3869e-08 0 1.4263e-08 0 1.4266e-08 0.0007 1.4269e-08 0 1.4663e-08 0 1.4666e-08 0.0007 1.4669e-08 0 1.5063e-08 0 1.5066e-08 0.0007 1.5069e-08 0 1.5463e-08 0 1.5466e-08 0.0007 1.5469e-08 0 1.5863e-08 0 1.5866e-08 0.0007 1.5869e-08 0 1.6263e-08 0 1.6266e-08 0.0007 1.6269e-08 0 1.6663e-08 0 1.6666e-08 0.0007 1.6669e-08 0 1.7063e-08 0 1.7066e-08 0.0007 1.7069e-08 0 1.7463e-08 0 1.7466e-08 0.0007 1.7469e-08 0 1.7863e-08 0 1.7866e-08 0.0007 1.7869e-08 0 1.8263e-08 0 1.8266e-08 0.0007 1.8269e-08 0 1.8663e-08 0 1.8666e-08 0.0007 1.8669e-08 0 1.9063e-08 0 1.9066e-08 0.0007 1.9069e-08 0 1.9463e-08 0 1.9466e-08 0.0007 1.9469e-08 0 1.9863e-08 0 1.9866e-08 0.0007 1.9869e-08 0 2.0263e-08 0 2.0266e-08 0.0007 2.0269e-08 0 2.0663e-08 0 2.0666e-08 0.0007 2.0669e-08 0 2.1063e-08 0 2.1066e-08 0.0007 2.1069e-08 0 2.1463e-08 0 2.1466e-08 0.0007 2.1469e-08 0 2.1863e-08 0 2.1866e-08 0.0007 2.1869e-08 0 2.2263e-08 0 2.2266e-08 0.0007 2.2269e-08 0 2.2663e-08 0 2.2666e-08 0.0007 2.2669e-08 0 2.3063e-08 0 2.3066e-08 0.0007 2.3069e-08 0 2.3463e-08 0 2.3466e-08 0.0007 2.3469e-08 0 2.3863e-08 0 2.3866e-08 0.0007 2.3869e-08 0 2.4263e-08 0 2.4266e-08 0.0007 2.4269e-08 0 2.4663e-08 0 2.4666e-08 0.0007 2.4669e-08 0 2.5063e-08 0 2.5066e-08 0.0007 2.5069e-08 0 2.5463e-08 0 2.5466e-08 0.0007 2.5469e-08 0 2.5863e-08 0 2.5866e-08 0.0007 2.5869e-08 0 2.6263e-08 0 2.6266e-08 0.0007 2.6269e-08 0 2.6663e-08 0 2.6666e-08 0.0007 2.6669e-08 0 2.7063e-08 0 2.7066e-08 0.0007 2.7069e-08 0 2.7463e-08 0 2.7466e-08 0.0007 2.7469e-08 0 2.7863e-08 0 2.7866e-08 0.0007 2.7869e-08 0 2.8263e-08 0 2.8266e-08 0.0007 2.8269e-08 0 2.8663e-08 0 2.8666e-08 0.0007 2.8669e-08 0 2.9063e-08 0 2.9066e-08 0.0007 2.9069e-08 0 2.9463e-08 0 2.9466e-08 0.0007 2.9469e-08 0 2.9863e-08 0 2.9866e-08 0.0007 2.9869e-08 0 3.0263e-08 0 3.0266e-08 0.0007 3.0269e-08 0 3.0663e-08 0 3.0666e-08 0.0007 3.0669e-08 0 3.1063e-08 0 3.1066e-08 0.0007 3.1069e-08 0 3.1463e-08 0 3.1466e-08 0.0007 3.1469e-08 0 3.1863e-08 0 3.1866e-08 0.0007 3.1869e-08 0 3.2263e-08 0 3.2266e-08 0.0007 3.2269e-08 0 3.2663e-08 0 3.2666e-08 0.0007 3.2669e-08 0 3.3063e-08 0 3.3066e-08 0.0007 3.3069e-08 0 3.3463e-08 0 3.3466e-08 0.0007 3.3469e-08 0 3.3863e-08 0 3.3866e-08 0.0007 3.3869e-08 0 3.4263e-08 0 3.4266e-08 0.0007 3.4269e-08 0 3.4663e-08 0 3.4666e-08 0.0007 3.4669e-08 0 3.5063e-08 0 3.5066e-08 0.0007 3.5069e-08 0 3.5463e-08 0 3.5466e-08 0.0007 3.5469e-08 0 3.5863e-08 0 3.5866e-08 0.0007 3.5869e-08 0 3.6263e-08 0 3.6266e-08 0.0007 3.6269e-08 0 3.6663e-08 0 3.6666e-08 0.0007 3.6669e-08 0 3.7063e-08 0 3.7066e-08 0.0007 3.7069e-08 0 3.7463e-08 0 3.7466e-08 0.0007 3.7469e-08 0 3.7863e-08 0 3.7866e-08 0.0007 3.7869e-08 0 3.8263e-08 0 3.8266e-08 0.0007 3.8269e-08 0 3.8663e-08 0 3.8666e-08 0.0007 3.8669e-08 0 3.9063e-08 0 3.9066e-08 0.0007 3.9069e-08 0 3.9463e-08 0 3.9466e-08 0.0007 3.9469e-08 0 3.9863e-08 0 3.9866e-08 0.0007 3.9869e-08 0 4.0263e-08 0 4.0266e-08 0.0007 4.0269e-08 0 4.0663e-08 0 4.0666e-08 0.0007 4.0669e-08 0 4.1063e-08 0 4.1066e-08 0.0007 4.1069e-08 0 4.1463e-08 0 4.1466e-08 0.0007 4.1469e-08 0 4.1863e-08 0 4.1866e-08 0.0007 4.1869e-08 0 4.2263e-08 0 4.2266e-08 0.0007 4.2269e-08 0 4.2663e-08 0 4.2666e-08 0.0007 4.2669e-08 0 4.3063e-08 0 4.3066e-08 0.0007 4.3069e-08 0 4.3463e-08 0 4.3466e-08 0.0007 4.3469e-08 0 4.3863e-08 0 4.3866e-08 0.0007 4.3869e-08 0 4.4263e-08 0 4.4266e-08 0.0007 4.4269e-08 0 4.4663e-08 0 4.4666e-08 0.0007 4.4669e-08 0 4.5063e-08 0 4.5066e-08 0.0007 4.5069e-08 0 4.5463e-08 0 4.5466e-08 0.0007 4.5469e-08 0 4.5863e-08 0 4.5866e-08 0.0007 4.5869e-08 0 4.6263e-08 0 4.6266e-08 0.0007 4.6269e-08 0 4.6663e-08 0 4.6666e-08 0.0007 4.6669e-08 0 4.7063e-08 0 4.7066e-08 0.0007 4.7069e-08 0 4.7463e-08 0 4.7466e-08 0.0007 4.7469e-08 0 4.7863e-08 0 4.7866e-08 0.0007 4.7869e-08 0 4.8263e-08 0 4.8266e-08 0.0007 4.8269e-08 0 4.8663e-08 0 4.8666e-08 0.0007 4.8669e-08 0 4.9063e-08 0 4.9066e-08 0.0007 4.9069e-08 0 4.9463e-08 0 4.9466e-08 0.0007 4.9469e-08 0 4.9863e-08 0 4.9866e-08 0.0007 4.9869e-08 0 5.0263e-08 0 5.0266e-08 0.0007 5.0269e-08 0 5.0663e-08 0 5.0666e-08 0.0007 5.0669e-08 0 5.1063e-08 0 5.1066e-08 0.0007 5.1069e-08 0)
IA1|B 0 A1_TX  PWL(0 0 4.63e-10 0 4.66e-10 0.0007 4.69e-10 0 6.63e-10 0 6.66e-10 0.0007 6.69e-10 0 1.263e-09 0 1.266e-09 0.0007 1.269e-09 0 1.463e-09 0 1.466e-09 0.0007 1.469e-09 0 2.063e-09 0 2.066e-09 0.0007 2.069e-09 0 2.263e-09 0 2.266e-09 0.0007 2.269e-09 0 2.863e-09 0 2.866e-09 0.0007 2.869e-09 0 3.063e-09 0 3.066e-09 0.0007 3.069e-09 0 3.663e-09 0 3.666e-09 0.0007 3.669e-09 0 3.863e-09 0 3.866e-09 0.0007 3.869e-09 0 4.463e-09 0 4.466e-09 0.0007 4.469e-09 0 4.663e-09 0 4.666e-09 0.0007 4.669e-09 0 5.263e-09 0 5.266e-09 0.0007 5.269e-09 0 5.463e-09 0 5.466e-09 0.0007 5.469e-09 0 6.063e-09 0 6.066e-09 0.0007 6.069e-09 0 6.263e-09 0 6.266e-09 0.0007 6.269e-09 0 6.863e-09 0 6.866e-09 0.0007 6.869e-09 0 7.063e-09 0 7.066e-09 0.0007 7.069e-09 0 7.663e-09 0 7.666e-09 0.0007 7.669e-09 0 7.863e-09 0 7.866e-09 0.0007 7.869e-09 0 8.463e-09 0 8.466e-09 0.0007 8.469e-09 0 8.663e-09 0 8.666e-09 0.0007 8.669e-09 0 9.263e-09 0 9.266e-09 0.0007 9.269e-09 0 9.463e-09 0 9.466e-09 0.0007 9.469e-09 0 1.0063e-08 0 1.0066e-08 0.0007 1.0069e-08 0 1.0263e-08 0 1.0266e-08 0.0007 1.0269e-08 0 1.0863e-08 0 1.0866e-08 0.0007 1.0869e-08 0 1.1063e-08 0 1.1066e-08 0.0007 1.1069e-08 0 1.1663e-08 0 1.1666e-08 0.0007 1.1669e-08 0 1.1863e-08 0 1.1866e-08 0.0007 1.1869e-08 0 1.2463e-08 0 1.2466e-08 0.0007 1.2469e-08 0 1.2663e-08 0 1.2666e-08 0.0007 1.2669e-08 0 1.3263e-08 0 1.3266e-08 0.0007 1.3269e-08 0 1.3463e-08 0 1.3466e-08 0.0007 1.3469e-08 0 1.4063e-08 0 1.4066e-08 0.0007 1.4069e-08 0 1.4263e-08 0 1.4266e-08 0.0007 1.4269e-08 0 1.4863e-08 0 1.4866e-08 0.0007 1.4869e-08 0 1.5063e-08 0 1.5066e-08 0.0007 1.5069e-08 0 1.5663e-08 0 1.5666e-08 0.0007 1.5669e-08 0 1.5863e-08 0 1.5866e-08 0.0007 1.5869e-08 0 1.6463e-08 0 1.6466e-08 0.0007 1.6469e-08 0 1.6663e-08 0 1.6666e-08 0.0007 1.6669e-08 0 1.7263e-08 0 1.7266e-08 0.0007 1.7269e-08 0 1.7463e-08 0 1.7466e-08 0.0007 1.7469e-08 0 1.8063e-08 0 1.8066e-08 0.0007 1.8069e-08 0 1.8263e-08 0 1.8266e-08 0.0007 1.8269e-08 0 1.8863e-08 0 1.8866e-08 0.0007 1.8869e-08 0 1.9063e-08 0 1.9066e-08 0.0007 1.9069e-08 0 1.9663e-08 0 1.9666e-08 0.0007 1.9669e-08 0 1.9863e-08 0 1.9866e-08 0.0007 1.9869e-08 0 2.0463e-08 0 2.0466e-08 0.0007 2.0469e-08 0 2.0663e-08 0 2.0666e-08 0.0007 2.0669e-08 0 2.1263e-08 0 2.1266e-08 0.0007 2.1269e-08 0 2.1463e-08 0 2.1466e-08 0.0007 2.1469e-08 0 2.2063e-08 0 2.2066e-08 0.0007 2.2069e-08 0 2.2263e-08 0 2.2266e-08 0.0007 2.2269e-08 0 2.2863e-08 0 2.2866e-08 0.0007 2.2869e-08 0 2.3063e-08 0 2.3066e-08 0.0007 2.3069e-08 0 2.3663e-08 0 2.3666e-08 0.0007 2.3669e-08 0 2.3863e-08 0 2.3866e-08 0.0007 2.3869e-08 0 2.4463e-08 0 2.4466e-08 0.0007 2.4469e-08 0 2.4663e-08 0 2.4666e-08 0.0007 2.4669e-08 0 2.5263e-08 0 2.5266e-08 0.0007 2.5269e-08 0 2.5463e-08 0 2.5466e-08 0.0007 2.5469e-08 0 2.6063e-08 0 2.6066e-08 0.0007 2.6069e-08 0 2.6263e-08 0 2.6266e-08 0.0007 2.6269e-08 0 2.6863e-08 0 2.6866e-08 0.0007 2.6869e-08 0 2.7063e-08 0 2.7066e-08 0.0007 2.7069e-08 0 2.7663e-08 0 2.7666e-08 0.0007 2.7669e-08 0 2.7863e-08 0 2.7866e-08 0.0007 2.7869e-08 0 2.8463e-08 0 2.8466e-08 0.0007 2.8469e-08 0 2.8663e-08 0 2.8666e-08 0.0007 2.8669e-08 0 2.9263e-08 0 2.9266e-08 0.0007 2.9269e-08 0 2.9463e-08 0 2.9466e-08 0.0007 2.9469e-08 0 3.0063e-08 0 3.0066e-08 0.0007 3.0069e-08 0 3.0263e-08 0 3.0266e-08 0.0007 3.0269e-08 0 3.0863e-08 0 3.0866e-08 0.0007 3.0869e-08 0 3.1063e-08 0 3.1066e-08 0.0007 3.1069e-08 0 3.1663e-08 0 3.1666e-08 0.0007 3.1669e-08 0 3.1863e-08 0 3.1866e-08 0.0007 3.1869e-08 0 3.2463e-08 0 3.2466e-08 0.0007 3.2469e-08 0 3.2663e-08 0 3.2666e-08 0.0007 3.2669e-08 0 3.3263e-08 0 3.3266e-08 0.0007 3.3269e-08 0 3.3463e-08 0 3.3466e-08 0.0007 3.3469e-08 0 3.4063e-08 0 3.4066e-08 0.0007 3.4069e-08 0 3.4263e-08 0 3.4266e-08 0.0007 3.4269e-08 0 3.4863e-08 0 3.4866e-08 0.0007 3.4869e-08 0 3.5063e-08 0 3.5066e-08 0.0007 3.5069e-08 0 3.5663e-08 0 3.5666e-08 0.0007 3.5669e-08 0 3.5863e-08 0 3.5866e-08 0.0007 3.5869e-08 0 3.6463e-08 0 3.6466e-08 0.0007 3.6469e-08 0 3.6663e-08 0 3.6666e-08 0.0007 3.6669e-08 0 3.7263e-08 0 3.7266e-08 0.0007 3.7269e-08 0 3.7463e-08 0 3.7466e-08 0.0007 3.7469e-08 0 3.8063e-08 0 3.8066e-08 0.0007 3.8069e-08 0 3.8263e-08 0 3.8266e-08 0.0007 3.8269e-08 0 3.8863e-08 0 3.8866e-08 0.0007 3.8869e-08 0 3.9063e-08 0 3.9066e-08 0.0007 3.9069e-08 0 3.9663e-08 0 3.9666e-08 0.0007 3.9669e-08 0 3.9863e-08 0 3.9866e-08 0.0007 3.9869e-08 0 4.0463e-08 0 4.0466e-08 0.0007 4.0469e-08 0 4.0663e-08 0 4.0666e-08 0.0007 4.0669e-08 0 4.1263e-08 0 4.1266e-08 0.0007 4.1269e-08 0 4.1463e-08 0 4.1466e-08 0.0007 4.1469e-08 0 4.2063e-08 0 4.2066e-08 0.0007 4.2069e-08 0 4.2263e-08 0 4.2266e-08 0.0007 4.2269e-08 0 4.2863e-08 0 4.2866e-08 0.0007 4.2869e-08 0 4.3063e-08 0 4.3066e-08 0.0007 4.3069e-08 0 4.3663e-08 0 4.3666e-08 0.0007 4.3669e-08 0 4.3863e-08 0 4.3866e-08 0.0007 4.3869e-08 0 4.4463e-08 0 4.4466e-08 0.0007 4.4469e-08 0 4.4663e-08 0 4.4666e-08 0.0007 4.4669e-08 0 4.5263e-08 0 4.5266e-08 0.0007 4.5269e-08 0 4.5463e-08 0 4.5466e-08 0.0007 4.5469e-08 0 4.6063e-08 0 4.6066e-08 0.0007 4.6069e-08 0 4.6263e-08 0 4.6266e-08 0.0007 4.6269e-08 0 4.6863e-08 0 4.6866e-08 0.0007 4.6869e-08 0 4.7063e-08 0 4.7066e-08 0.0007 4.7069e-08 0 4.7663e-08 0 4.7666e-08 0.0007 4.7669e-08 0 4.7863e-08 0 4.7866e-08 0.0007 4.7869e-08 0 4.8463e-08 0 4.8466e-08 0.0007 4.8469e-08 0 4.8663e-08 0 4.8666e-08 0.0007 4.8669e-08 0 4.9263e-08 0 4.9266e-08 0.0007 4.9269e-08 0 4.9463e-08 0 4.9466e-08 0.0007 4.9469e-08 0 5.0063e-08 0 5.0066e-08 0.0007 5.0069e-08 0 5.0263e-08 0 5.0266e-08 0.0007 5.0269e-08 0 5.0863e-08 0 5.0866e-08 0.0007 5.0869e-08 0 5.1063e-08 0 5.1066e-08 0.0007 5.1069e-08 0)
IA2|C 0 A2_TX  PWL(0 0 8.63e-10 0 8.66e-10 0.0007 8.69e-10 0 1.063e-09 0 1.066e-09 0.0007 1.069e-09 0 1.263e-09 0 1.266e-09 0.0007 1.269e-09 0 1.463e-09 0 1.466e-09 0.0007 1.469e-09 0 2.463e-09 0 2.466e-09 0.0007 2.469e-09 0 2.663e-09 0 2.666e-09 0.0007 2.669e-09 0 2.863e-09 0 2.866e-09 0.0007 2.869e-09 0 3.063e-09 0 3.066e-09 0.0007 3.069e-09 0 4.063e-09 0 4.066e-09 0.0007 4.069e-09 0 4.263e-09 0 4.266e-09 0.0007 4.269e-09 0 4.463e-09 0 4.466e-09 0.0007 4.469e-09 0 4.663e-09 0 4.666e-09 0.0007 4.669e-09 0 5.663e-09 0 5.666e-09 0.0007 5.669e-09 0 5.863e-09 0 5.866e-09 0.0007 5.869e-09 0 6.063e-09 0 6.066e-09 0.0007 6.069e-09 0 6.263e-09 0 6.266e-09 0.0007 6.269e-09 0 7.263e-09 0 7.266e-09 0.0007 7.269e-09 0 7.463e-09 0 7.466e-09 0.0007 7.469e-09 0 7.663e-09 0 7.666e-09 0.0007 7.669e-09 0 7.863e-09 0 7.866e-09 0.0007 7.869e-09 0 8.863e-09 0 8.866e-09 0.0007 8.869e-09 0 9.063e-09 0 9.066e-09 0.0007 9.069e-09 0 9.263e-09 0 9.266e-09 0.0007 9.269e-09 0 9.463e-09 0 9.466e-09 0.0007 9.469e-09 0 1.0463e-08 0 1.0466e-08 0.0007 1.0469e-08 0 1.0663e-08 0 1.0666e-08 0.0007 1.0669e-08 0 1.0863e-08 0 1.0866e-08 0.0007 1.0869e-08 0 1.1063e-08 0 1.1066e-08 0.0007 1.1069e-08 0 1.2063e-08 0 1.2066e-08 0.0007 1.2069e-08 0 1.2263e-08 0 1.2266e-08 0.0007 1.2269e-08 0 1.2463e-08 0 1.2466e-08 0.0007 1.2469e-08 0 1.2663e-08 0 1.2666e-08 0.0007 1.2669e-08 0 1.3663e-08 0 1.3666e-08 0.0007 1.3669e-08 0 1.3863e-08 0 1.3866e-08 0.0007 1.3869e-08 0 1.4063e-08 0 1.4066e-08 0.0007 1.4069e-08 0 1.4263e-08 0 1.4266e-08 0.0007 1.4269e-08 0 1.5263e-08 0 1.5266e-08 0.0007 1.5269e-08 0 1.5463e-08 0 1.5466e-08 0.0007 1.5469e-08 0 1.5663e-08 0 1.5666e-08 0.0007 1.5669e-08 0 1.5863e-08 0 1.5866e-08 0.0007 1.5869e-08 0 1.6863e-08 0 1.6866e-08 0.0007 1.6869e-08 0 1.7063e-08 0 1.7066e-08 0.0007 1.7069e-08 0 1.7263e-08 0 1.7266e-08 0.0007 1.7269e-08 0 1.7463e-08 0 1.7466e-08 0.0007 1.7469e-08 0 1.8463e-08 0 1.8466e-08 0.0007 1.8469e-08 0 1.8663e-08 0 1.8666e-08 0.0007 1.8669e-08 0 1.8863e-08 0 1.8866e-08 0.0007 1.8869e-08 0 1.9063e-08 0 1.9066e-08 0.0007 1.9069e-08 0 2.0063e-08 0 2.0066e-08 0.0007 2.0069e-08 0 2.0263e-08 0 2.0266e-08 0.0007 2.0269e-08 0 2.0463e-08 0 2.0466e-08 0.0007 2.0469e-08 0 2.0663e-08 0 2.0666e-08 0.0007 2.0669e-08 0 2.1663e-08 0 2.1666e-08 0.0007 2.1669e-08 0 2.1863e-08 0 2.1866e-08 0.0007 2.1869e-08 0 2.2063e-08 0 2.2066e-08 0.0007 2.2069e-08 0 2.2263e-08 0 2.2266e-08 0.0007 2.2269e-08 0 2.3263e-08 0 2.3266e-08 0.0007 2.3269e-08 0 2.3463e-08 0 2.3466e-08 0.0007 2.3469e-08 0 2.3663e-08 0 2.3666e-08 0.0007 2.3669e-08 0 2.3863e-08 0 2.3866e-08 0.0007 2.3869e-08 0 2.4863e-08 0 2.4866e-08 0.0007 2.4869e-08 0 2.5063e-08 0 2.5066e-08 0.0007 2.5069e-08 0 2.5263e-08 0 2.5266e-08 0.0007 2.5269e-08 0 2.5463e-08 0 2.5466e-08 0.0007 2.5469e-08 0 2.6463e-08 0 2.6466e-08 0.0007 2.6469e-08 0 2.6663e-08 0 2.6666e-08 0.0007 2.6669e-08 0 2.6863e-08 0 2.6866e-08 0.0007 2.6869e-08 0 2.7063e-08 0 2.7066e-08 0.0007 2.7069e-08 0 2.8063e-08 0 2.8066e-08 0.0007 2.8069e-08 0 2.8263e-08 0 2.8266e-08 0.0007 2.8269e-08 0 2.8463e-08 0 2.8466e-08 0.0007 2.8469e-08 0 2.8663e-08 0 2.8666e-08 0.0007 2.8669e-08 0 2.9663e-08 0 2.9666e-08 0.0007 2.9669e-08 0 2.9863e-08 0 2.9866e-08 0.0007 2.9869e-08 0 3.0063e-08 0 3.0066e-08 0.0007 3.0069e-08 0 3.0263e-08 0 3.0266e-08 0.0007 3.0269e-08 0 3.1263e-08 0 3.1266e-08 0.0007 3.1269e-08 0 3.1463e-08 0 3.1466e-08 0.0007 3.1469e-08 0 3.1663e-08 0 3.1666e-08 0.0007 3.1669e-08 0 3.1863e-08 0 3.1866e-08 0.0007 3.1869e-08 0 3.2863e-08 0 3.2866e-08 0.0007 3.2869e-08 0 3.3063e-08 0 3.3066e-08 0.0007 3.3069e-08 0 3.3263e-08 0 3.3266e-08 0.0007 3.3269e-08 0 3.3463e-08 0 3.3466e-08 0.0007 3.3469e-08 0 3.4463e-08 0 3.4466e-08 0.0007 3.4469e-08 0 3.4663e-08 0 3.4666e-08 0.0007 3.4669e-08 0 3.4863e-08 0 3.4866e-08 0.0007 3.4869e-08 0 3.5063e-08 0 3.5066e-08 0.0007 3.5069e-08 0 3.6063e-08 0 3.6066e-08 0.0007 3.6069e-08 0 3.6263e-08 0 3.6266e-08 0.0007 3.6269e-08 0 3.6463e-08 0 3.6466e-08 0.0007 3.6469e-08 0 3.6663e-08 0 3.6666e-08 0.0007 3.6669e-08 0 3.7663e-08 0 3.7666e-08 0.0007 3.7669e-08 0 3.7863e-08 0 3.7866e-08 0.0007 3.7869e-08 0 3.8063e-08 0 3.8066e-08 0.0007 3.8069e-08 0 3.8263e-08 0 3.8266e-08 0.0007 3.8269e-08 0 3.9263e-08 0 3.9266e-08 0.0007 3.9269e-08 0 3.9463e-08 0 3.9466e-08 0.0007 3.9469e-08 0 3.9663e-08 0 3.9666e-08 0.0007 3.9669e-08 0 3.9863e-08 0 3.9866e-08 0.0007 3.9869e-08 0 4.0863e-08 0 4.0866e-08 0.0007 4.0869e-08 0 4.1063e-08 0 4.1066e-08 0.0007 4.1069e-08 0 4.1263e-08 0 4.1266e-08 0.0007 4.1269e-08 0 4.1463e-08 0 4.1466e-08 0.0007 4.1469e-08 0 4.2463e-08 0 4.2466e-08 0.0007 4.2469e-08 0 4.2663e-08 0 4.2666e-08 0.0007 4.2669e-08 0 4.2863e-08 0 4.2866e-08 0.0007 4.2869e-08 0 4.3063e-08 0 4.3066e-08 0.0007 4.3069e-08 0 4.4063e-08 0 4.4066e-08 0.0007 4.4069e-08 0 4.4263e-08 0 4.4266e-08 0.0007 4.4269e-08 0 4.4463e-08 0 4.4466e-08 0.0007 4.4469e-08 0 4.4663e-08 0 4.4666e-08 0.0007 4.4669e-08 0 4.5663e-08 0 4.5666e-08 0.0007 4.5669e-08 0 4.5863e-08 0 4.5866e-08 0.0007 4.5869e-08 0 4.6063e-08 0 4.6066e-08 0.0007 4.6069e-08 0 4.6263e-08 0 4.6266e-08 0.0007 4.6269e-08 0 4.7263e-08 0 4.7266e-08 0.0007 4.7269e-08 0 4.7463e-08 0 4.7466e-08 0.0007 4.7469e-08 0 4.7663e-08 0 4.7666e-08 0.0007 4.7669e-08 0 4.7863e-08 0 4.7866e-08 0.0007 4.7869e-08 0 4.8863e-08 0 4.8866e-08 0.0007 4.8869e-08 0 4.9063e-08 0 4.9066e-08 0.0007 4.9069e-08 0 4.9263e-08 0 4.9266e-08 0.0007 4.9269e-08 0 4.9463e-08 0 4.9466e-08 0.0007 4.9469e-08 0 5.0463e-08 0 5.0466e-08 0.0007 5.0469e-08 0 5.0663e-08 0 5.0666e-08 0.0007 5.0669e-08 0 5.0863e-08 0 5.0866e-08 0.0007 5.0869e-08 0 5.1063e-08 0 5.1066e-08 0.0007 5.1069e-08 0)
IA3|D 0 A3_TX  PWL(0 0 1.663e-09 0 1.666e-09 0.0007 1.669e-09 0 1.863e-09 0 1.866e-09 0.0007 1.869e-09 0 2.063e-09 0 2.066e-09 0.0007 2.069e-09 0 2.263e-09 0 2.266e-09 0.0007 2.269e-09 0 2.463e-09 0 2.466e-09 0.0007 2.469e-09 0 2.663e-09 0 2.666e-09 0.0007 2.669e-09 0 2.863e-09 0 2.866e-09 0.0007 2.869e-09 0 3.063e-09 0 3.066e-09 0.0007 3.069e-09 0 4.863e-09 0 4.866e-09 0.0007 4.869e-09 0 5.063e-09 0 5.066e-09 0.0007 5.069e-09 0 5.263e-09 0 5.266e-09 0.0007 5.269e-09 0 5.463e-09 0 5.466e-09 0.0007 5.469e-09 0 5.663e-09 0 5.666e-09 0.0007 5.669e-09 0 5.863e-09 0 5.866e-09 0.0007 5.869e-09 0 6.063e-09 0 6.066e-09 0.0007 6.069e-09 0 6.263e-09 0 6.266e-09 0.0007 6.269e-09 0 8.063e-09 0 8.066e-09 0.0007 8.069e-09 0 8.263e-09 0 8.266e-09 0.0007 8.269e-09 0 8.463e-09 0 8.466e-09 0.0007 8.469e-09 0 8.663e-09 0 8.666e-09 0.0007 8.669e-09 0 8.863e-09 0 8.866e-09 0.0007 8.869e-09 0 9.063e-09 0 9.066e-09 0.0007 9.069e-09 0 9.263e-09 0 9.266e-09 0.0007 9.269e-09 0 9.463e-09 0 9.466e-09 0.0007 9.469e-09 0 1.1263e-08 0 1.1266e-08 0.0007 1.1269e-08 0 1.1463e-08 0 1.1466e-08 0.0007 1.1469e-08 0 1.1663e-08 0 1.1666e-08 0.0007 1.1669e-08 0 1.1863e-08 0 1.1866e-08 0.0007 1.1869e-08 0 1.2063e-08 0 1.2066e-08 0.0007 1.2069e-08 0 1.2263e-08 0 1.2266e-08 0.0007 1.2269e-08 0 1.2463e-08 0 1.2466e-08 0.0007 1.2469e-08 0 1.2663e-08 0 1.2666e-08 0.0007 1.2669e-08 0 1.4463e-08 0 1.4466e-08 0.0007 1.4469e-08 0 1.4663e-08 0 1.4666e-08 0.0007 1.4669e-08 0 1.4863e-08 0 1.4866e-08 0.0007 1.4869e-08 0 1.5063e-08 0 1.5066e-08 0.0007 1.5069e-08 0 1.5263e-08 0 1.5266e-08 0.0007 1.5269e-08 0 1.5463e-08 0 1.5466e-08 0.0007 1.5469e-08 0 1.5663e-08 0 1.5666e-08 0.0007 1.5669e-08 0 1.5863e-08 0 1.5866e-08 0.0007 1.5869e-08 0 1.7663e-08 0 1.7666e-08 0.0007 1.7669e-08 0 1.7863e-08 0 1.7866e-08 0.0007 1.7869e-08 0 1.8063e-08 0 1.8066e-08 0.0007 1.8069e-08 0 1.8263e-08 0 1.8266e-08 0.0007 1.8269e-08 0 1.8463e-08 0 1.8466e-08 0.0007 1.8469e-08 0 1.8663e-08 0 1.8666e-08 0.0007 1.8669e-08 0 1.8863e-08 0 1.8866e-08 0.0007 1.8869e-08 0 1.9063e-08 0 1.9066e-08 0.0007 1.9069e-08 0 2.0863e-08 0 2.0866e-08 0.0007 2.0869e-08 0 2.1063e-08 0 2.1066e-08 0.0007 2.1069e-08 0 2.1263e-08 0 2.1266e-08 0.0007 2.1269e-08 0 2.1463e-08 0 2.1466e-08 0.0007 2.1469e-08 0 2.1663e-08 0 2.1666e-08 0.0007 2.1669e-08 0 2.1863e-08 0 2.1866e-08 0.0007 2.1869e-08 0 2.2063e-08 0 2.2066e-08 0.0007 2.2069e-08 0 2.2263e-08 0 2.2266e-08 0.0007 2.2269e-08 0 2.4063e-08 0 2.4066e-08 0.0007 2.4069e-08 0 2.4263e-08 0 2.4266e-08 0.0007 2.4269e-08 0 2.4463e-08 0 2.4466e-08 0.0007 2.4469e-08 0 2.4663e-08 0 2.4666e-08 0.0007 2.4669e-08 0 2.4863e-08 0 2.4866e-08 0.0007 2.4869e-08 0 2.5063e-08 0 2.5066e-08 0.0007 2.5069e-08 0 2.5263e-08 0 2.5266e-08 0.0007 2.5269e-08 0 2.5463e-08 0 2.5466e-08 0.0007 2.5469e-08 0 2.7263e-08 0 2.7266e-08 0.0007 2.7269e-08 0 2.7463e-08 0 2.7466e-08 0.0007 2.7469e-08 0 2.7663e-08 0 2.7666e-08 0.0007 2.7669e-08 0 2.7863e-08 0 2.7866e-08 0.0007 2.7869e-08 0 2.8063e-08 0 2.8066e-08 0.0007 2.8069e-08 0 2.8263e-08 0 2.8266e-08 0.0007 2.8269e-08 0 2.8463e-08 0 2.8466e-08 0.0007 2.8469e-08 0 2.8663e-08 0 2.8666e-08 0.0007 2.8669e-08 0 3.0463e-08 0 3.0466e-08 0.0007 3.0469e-08 0 3.0663e-08 0 3.0666e-08 0.0007 3.0669e-08 0 3.0863e-08 0 3.0866e-08 0.0007 3.0869e-08 0 3.1063e-08 0 3.1066e-08 0.0007 3.1069e-08 0 3.1263e-08 0 3.1266e-08 0.0007 3.1269e-08 0 3.1463e-08 0 3.1466e-08 0.0007 3.1469e-08 0 3.1663e-08 0 3.1666e-08 0.0007 3.1669e-08 0 3.1863e-08 0 3.1866e-08 0.0007 3.1869e-08 0 3.3663e-08 0 3.3666e-08 0.0007 3.3669e-08 0 3.3863e-08 0 3.3866e-08 0.0007 3.3869e-08 0 3.4063e-08 0 3.4066e-08 0.0007 3.4069e-08 0 3.4263e-08 0 3.4266e-08 0.0007 3.4269e-08 0 3.4463e-08 0 3.4466e-08 0.0007 3.4469e-08 0 3.4663e-08 0 3.4666e-08 0.0007 3.4669e-08 0 3.4863e-08 0 3.4866e-08 0.0007 3.4869e-08 0 3.5063e-08 0 3.5066e-08 0.0007 3.5069e-08 0 3.6863e-08 0 3.6866e-08 0.0007 3.6869e-08 0 3.7063e-08 0 3.7066e-08 0.0007 3.7069e-08 0 3.7263e-08 0 3.7266e-08 0.0007 3.7269e-08 0 3.7463e-08 0 3.7466e-08 0.0007 3.7469e-08 0 3.7663e-08 0 3.7666e-08 0.0007 3.7669e-08 0 3.7863e-08 0 3.7866e-08 0.0007 3.7869e-08 0 3.8063e-08 0 3.8066e-08 0.0007 3.8069e-08 0 3.8263e-08 0 3.8266e-08 0.0007 3.8269e-08 0 4.0063e-08 0 4.0066e-08 0.0007 4.0069e-08 0 4.0263e-08 0 4.0266e-08 0.0007 4.0269e-08 0 4.0463e-08 0 4.0466e-08 0.0007 4.0469e-08 0 4.0663e-08 0 4.0666e-08 0.0007 4.0669e-08 0 4.0863e-08 0 4.0866e-08 0.0007 4.0869e-08 0 4.1063e-08 0 4.1066e-08 0.0007 4.1069e-08 0 4.1263e-08 0 4.1266e-08 0.0007 4.1269e-08 0 4.1463e-08 0 4.1466e-08 0.0007 4.1469e-08 0 4.3263e-08 0 4.3266e-08 0.0007 4.3269e-08 0 4.3463e-08 0 4.3466e-08 0.0007 4.3469e-08 0 4.3663e-08 0 4.3666e-08 0.0007 4.3669e-08 0 4.3863e-08 0 4.3866e-08 0.0007 4.3869e-08 0 4.4063e-08 0 4.4066e-08 0.0007 4.4069e-08 0 4.4263e-08 0 4.4266e-08 0.0007 4.4269e-08 0 4.4463e-08 0 4.4466e-08 0.0007 4.4469e-08 0 4.4663e-08 0 4.4666e-08 0.0007 4.4669e-08 0 4.6463e-08 0 4.6466e-08 0.0007 4.6469e-08 0 4.6663e-08 0 4.6666e-08 0.0007 4.6669e-08 0 4.6863e-08 0 4.6866e-08 0.0007 4.6869e-08 0 4.7063e-08 0 4.7066e-08 0.0007 4.7069e-08 0 4.7263e-08 0 4.7266e-08 0.0007 4.7269e-08 0 4.7463e-08 0 4.7466e-08 0.0007 4.7469e-08 0 4.7663e-08 0 4.7666e-08 0.0007 4.7669e-08 0 4.7863e-08 0 4.7866e-08 0.0007 4.7869e-08 0 4.9663e-08 0 4.9666e-08 0.0007 4.9669e-08 0 4.9863e-08 0 4.9866e-08 0.0007 4.9869e-08 0 5.0063e-08 0 5.0066e-08 0.0007 5.0069e-08 0 5.0263e-08 0 5.0266e-08 0.0007 5.0269e-08 0 5.0463e-08 0 5.0466e-08 0.0007 5.0469e-08 0 5.0663e-08 0 5.0666e-08 0.0007 5.0669e-08 0 5.0863e-08 0 5.0866e-08 0.0007 5.0869e-08 0 5.1063e-08 0 5.1066e-08 0.0007 5.1069e-08 0)
IA4|E 0 A4_TX  PWL(0 0 3.263e-09 0 3.266e-09 0.0007 3.269e-09 0 3.463e-09 0 3.466e-09 0.0007 3.469e-09 0 3.663e-09 0 3.666e-09 0.0007 3.669e-09 0 3.863e-09 0 3.866e-09 0.0007 3.869e-09 0 4.063e-09 0 4.066e-09 0.0007 4.069e-09 0 4.263e-09 0 4.266e-09 0.0007 4.269e-09 0 4.463e-09 0 4.466e-09 0.0007 4.469e-09 0 4.663e-09 0 4.666e-09 0.0007 4.669e-09 0 4.863e-09 0 4.866e-09 0.0007 4.869e-09 0 5.063e-09 0 5.066e-09 0.0007 5.069e-09 0 5.263e-09 0 5.266e-09 0.0007 5.269e-09 0 5.463e-09 0 5.466e-09 0.0007 5.469e-09 0 5.663e-09 0 5.666e-09 0.0007 5.669e-09 0 5.863e-09 0 5.866e-09 0.0007 5.869e-09 0 6.063e-09 0 6.066e-09 0.0007 6.069e-09 0 6.263e-09 0 6.266e-09 0.0007 6.269e-09 0 9.663e-09 0 9.666e-09 0.0007 9.669e-09 0 9.863e-09 0 9.866e-09 0.0007 9.869e-09 0 1.0063e-08 0 1.0066e-08 0.0007 1.0069e-08 0 1.0263e-08 0 1.0266e-08 0.0007 1.0269e-08 0 1.0463e-08 0 1.0466e-08 0.0007 1.0469e-08 0 1.0663e-08 0 1.0666e-08 0.0007 1.0669e-08 0 1.0863e-08 0 1.0866e-08 0.0007 1.0869e-08 0 1.1063e-08 0 1.1066e-08 0.0007 1.1069e-08 0 1.1263e-08 0 1.1266e-08 0.0007 1.1269e-08 0 1.1463e-08 0 1.1466e-08 0.0007 1.1469e-08 0 1.1663e-08 0 1.1666e-08 0.0007 1.1669e-08 0 1.1863e-08 0 1.1866e-08 0.0007 1.1869e-08 0 1.2063e-08 0 1.2066e-08 0.0007 1.2069e-08 0 1.2263e-08 0 1.2266e-08 0.0007 1.2269e-08 0 1.2463e-08 0 1.2466e-08 0.0007 1.2469e-08 0 1.2663e-08 0 1.2666e-08 0.0007 1.2669e-08 0 1.6063e-08 0 1.6066e-08 0.0007 1.6069e-08 0 1.6263e-08 0 1.6266e-08 0.0007 1.6269e-08 0 1.6463e-08 0 1.6466e-08 0.0007 1.6469e-08 0 1.6663e-08 0 1.6666e-08 0.0007 1.6669e-08 0 1.6863e-08 0 1.6866e-08 0.0007 1.6869e-08 0 1.7063e-08 0 1.7066e-08 0.0007 1.7069e-08 0 1.7263e-08 0 1.7266e-08 0.0007 1.7269e-08 0 1.7463e-08 0 1.7466e-08 0.0007 1.7469e-08 0 1.7663e-08 0 1.7666e-08 0.0007 1.7669e-08 0 1.7863e-08 0 1.7866e-08 0.0007 1.7869e-08 0 1.8063e-08 0 1.8066e-08 0.0007 1.8069e-08 0 1.8263e-08 0 1.8266e-08 0.0007 1.8269e-08 0 1.8463e-08 0 1.8466e-08 0.0007 1.8469e-08 0 1.8663e-08 0 1.8666e-08 0.0007 1.8669e-08 0 1.8863e-08 0 1.8866e-08 0.0007 1.8869e-08 0 1.9063e-08 0 1.9066e-08 0.0007 1.9069e-08 0 2.2463e-08 0 2.2466e-08 0.0007 2.2469e-08 0 2.2663e-08 0 2.2666e-08 0.0007 2.2669e-08 0 2.2863e-08 0 2.2866e-08 0.0007 2.2869e-08 0 2.3063e-08 0 2.3066e-08 0.0007 2.3069e-08 0 2.3263e-08 0 2.3266e-08 0.0007 2.3269e-08 0 2.3463e-08 0 2.3466e-08 0.0007 2.3469e-08 0 2.3663e-08 0 2.3666e-08 0.0007 2.3669e-08 0 2.3863e-08 0 2.3866e-08 0.0007 2.3869e-08 0 2.4063e-08 0 2.4066e-08 0.0007 2.4069e-08 0 2.4263e-08 0 2.4266e-08 0.0007 2.4269e-08 0 2.4463e-08 0 2.4466e-08 0.0007 2.4469e-08 0 2.4663e-08 0 2.4666e-08 0.0007 2.4669e-08 0 2.4863e-08 0 2.4866e-08 0.0007 2.4869e-08 0 2.5063e-08 0 2.5066e-08 0.0007 2.5069e-08 0 2.5263e-08 0 2.5266e-08 0.0007 2.5269e-08 0 2.5463e-08 0 2.5466e-08 0.0007 2.5469e-08 0 2.8863e-08 0 2.8866e-08 0.0007 2.8869e-08 0 2.9063e-08 0 2.9066e-08 0.0007 2.9069e-08 0 2.9263e-08 0 2.9266e-08 0.0007 2.9269e-08 0 2.9463e-08 0 2.9466e-08 0.0007 2.9469e-08 0 2.9663e-08 0 2.9666e-08 0.0007 2.9669e-08 0 2.9863e-08 0 2.9866e-08 0.0007 2.9869e-08 0 3.0063e-08 0 3.0066e-08 0.0007 3.0069e-08 0 3.0263e-08 0 3.0266e-08 0.0007 3.0269e-08 0 3.0463e-08 0 3.0466e-08 0.0007 3.0469e-08 0 3.0663e-08 0 3.0666e-08 0.0007 3.0669e-08 0 3.0863e-08 0 3.0866e-08 0.0007 3.0869e-08 0 3.1063e-08 0 3.1066e-08 0.0007 3.1069e-08 0 3.1263e-08 0 3.1266e-08 0.0007 3.1269e-08 0 3.1463e-08 0 3.1466e-08 0.0007 3.1469e-08 0 3.1663e-08 0 3.1666e-08 0.0007 3.1669e-08 0 3.1863e-08 0 3.1866e-08 0.0007 3.1869e-08 0 3.5263e-08 0 3.5266e-08 0.0007 3.5269e-08 0 3.5463e-08 0 3.5466e-08 0.0007 3.5469e-08 0 3.5663e-08 0 3.5666e-08 0.0007 3.5669e-08 0 3.5863e-08 0 3.5866e-08 0.0007 3.5869e-08 0 3.6063e-08 0 3.6066e-08 0.0007 3.6069e-08 0 3.6263e-08 0 3.6266e-08 0.0007 3.6269e-08 0 3.6463e-08 0 3.6466e-08 0.0007 3.6469e-08 0 3.6663e-08 0 3.6666e-08 0.0007 3.6669e-08 0 3.6863e-08 0 3.6866e-08 0.0007 3.6869e-08 0 3.7063e-08 0 3.7066e-08 0.0007 3.7069e-08 0 3.7263e-08 0 3.7266e-08 0.0007 3.7269e-08 0 3.7463e-08 0 3.7466e-08 0.0007 3.7469e-08 0 3.7663e-08 0 3.7666e-08 0.0007 3.7669e-08 0 3.7863e-08 0 3.7866e-08 0.0007 3.7869e-08 0 3.8063e-08 0 3.8066e-08 0.0007 3.8069e-08 0 3.8263e-08 0 3.8266e-08 0.0007 3.8269e-08 0 4.1663e-08 0 4.1666e-08 0.0007 4.1669e-08 0 4.1863e-08 0 4.1866e-08 0.0007 4.1869e-08 0 4.2063e-08 0 4.2066e-08 0.0007 4.2069e-08 0 4.2263e-08 0 4.2266e-08 0.0007 4.2269e-08 0 4.2463e-08 0 4.2466e-08 0.0007 4.2469e-08 0 4.2663e-08 0 4.2666e-08 0.0007 4.2669e-08 0 4.2863e-08 0 4.2866e-08 0.0007 4.2869e-08 0 4.3063e-08 0 4.3066e-08 0.0007 4.3069e-08 0 4.3263e-08 0 4.3266e-08 0.0007 4.3269e-08 0 4.3463e-08 0 4.3466e-08 0.0007 4.3469e-08 0 4.3663e-08 0 4.3666e-08 0.0007 4.3669e-08 0 4.3863e-08 0 4.3866e-08 0.0007 4.3869e-08 0 4.4063e-08 0 4.4066e-08 0.0007 4.4069e-08 0 4.4263e-08 0 4.4266e-08 0.0007 4.4269e-08 0 4.4463e-08 0 4.4466e-08 0.0007 4.4469e-08 0 4.4663e-08 0 4.4666e-08 0.0007 4.4669e-08 0 4.8063e-08 0 4.8066e-08 0.0007 4.8069e-08 0 4.8263e-08 0 4.8266e-08 0.0007 4.8269e-08 0 4.8463e-08 0 4.8466e-08 0.0007 4.8469e-08 0 4.8663e-08 0 4.8666e-08 0.0007 4.8669e-08 0 4.8863e-08 0 4.8866e-08 0.0007 4.8869e-08 0 4.9063e-08 0 4.9066e-08 0.0007 4.9069e-08 0 4.9263e-08 0 4.9266e-08 0.0007 4.9269e-08 0 4.9463e-08 0 4.9466e-08 0.0007 4.9469e-08 0 4.9663e-08 0 4.9666e-08 0.0007 4.9669e-08 0 4.9863e-08 0 4.9866e-08 0.0007 4.9869e-08 0 5.0063e-08 0 5.0066e-08 0.0007 5.0069e-08 0 5.0263e-08 0 5.0266e-08 0.0007 5.0269e-08 0 5.0463e-08 0 5.0466e-08 0.0007 5.0469e-08 0 5.0663e-08 0 5.0666e-08 0.0007 5.0669e-08 0 5.0863e-08 0 5.0866e-08 0.0007 5.0869e-08 0 5.1063e-08 0 5.1066e-08 0.0007 5.1069e-08 0)