*
.PARAM PHI0=2.067833848e-15
.PARAM B0=1
.PARAM IC0=0.0001
.PARAM ICRS=0.0006859904418
.PARAM B0RS=6.859904418
.PARAM RSHEET=2
.PARAM LSHEET=1.13e-12
.PARAM LP=2e-13
.PARAM LPTL=2e-12
.PARAM IC=2.5
.PARAM LB=2e-12
.PARAM BIASCOEF=0.7
.PARAM TCLOCK=2e-10
.PARAM OS=5.0000000000000005e-12
.PARAM STEP=0.08
.MODEL JJMIT JJ(RTYPE=1, VG=2.8MV, CAP=0.07PF, R0=160, RN=16, ICRIT=0.1MA)
.MODEL JJMIT JJ(RTYPE=1, VG=2.8MV, CAP=0.07PF, R0=160, RN=16, ICRIT=0.1MA)
.TRAN 1E-12 54000E-12
R_P0_1 P0_1 0  1
R_G0_1 G0_1 0  1
R_P1_1_TO1 P1_1_TO1 0  1
R_P1_1_TO2 P1_1_TO2 0  1
R_P1_1_TO3 P1_1_TO3 0  1
R_G1_1_TO1 G1_1_TO1 0  1
R_G1_1_TO2 G1_1_TO2 0  1
R_G1_1_TO3 G1_1_TO3 0  1
R_P2_1 P2_1 0  1
R_G2_1 G2_1 0  1
R_P3_1 P3_1 0  1
R_G3_1 G3_1 0  1
R_IP1_1 IP1_1_OUT 0  1
R_IP2_1 IP2_1_OUT 0  1
R_IP3_1 IP3_1_OUT 0  1
IA0_|A 0 A0_  PWL(0 0 3.55e-11 0 3.7e-11 0.0013786 3.85e-11 0 4.355e-10 0 4.37e-10 0.0013786 4.385e-10 0 8.355e-10 0 8.37e-10 0.0013786 8.385e-10 0 1.2355e-09 0 1.237e-09 0.0013786 1.2385e-09 0 1.6355e-09 0 1.637e-09 0.0013786 1.6385e-09 0 2.0355e-09 0 2.037e-09 0.0013786 2.0385e-09 0 2.4355e-09 0 2.437e-09 0.0013786 2.4385e-09 0 2.8355e-09 0 2.837e-09 0.0013786 2.8385e-09 0 3.2355e-09 0 3.237e-09 0.0013786 3.2385e-09 0 3.6355e-09 0 3.637e-09 0.0013786 3.6385e-09 0 4.0355e-09 0 4.037e-09 0.0013786 4.0385e-09 0 4.4355e-09 0 4.437e-09 0.0013786 4.4385e-09 0 4.8355e-09 0 4.837e-09 0.0013786 4.8385e-09 0 5.2355e-09 0 5.237e-09 0.0013786 5.2385e-09 0 5.6355e-09 0 5.637e-09 0.0013786 5.6385e-09 0 6.0355e-09 0 6.037e-09 0.0013786 6.0385e-09 0 6.4355e-09 0 6.437e-09 0.0013786 6.4385e-09 0 6.8355e-09 0 6.837e-09 0.0013786 6.8385e-09 0 7.2355e-09 0 7.237e-09 0.0013786 7.2385e-09 0 7.6355e-09 0 7.637e-09 0.0013786 7.6385e-09 0 8.0355e-09 0 8.037e-09 0.0013786 8.0385e-09 0 8.4355e-09 0 8.437e-09 0.0013786 8.4385e-09 0 8.8355e-09 0 8.837e-09 0.0013786 8.8385e-09 0 9.2355e-09 0 9.237e-09 0.0013786 9.2385e-09 0 9.6355e-09 0 9.637e-09 0.0013786 9.6385e-09 0 1.00355e-08 0 1.0037e-08 0.0013786 1.00385e-08 0 1.04355e-08 0 1.0437e-08 0.0013786 1.04385e-08 0 1.08355e-08 0 1.0837e-08 0.0013786 1.08385e-08 0 1.12355e-08 0 1.1237e-08 0.0013786 1.12385e-08 0 1.16355e-08 0 1.1637e-08 0.0013786 1.16385e-08 0 1.20355e-08 0 1.2037e-08 0.0013786 1.20385e-08 0 1.24355e-08 0 1.2437e-08 0.0013786 1.24385e-08 0 1.28355e-08 0 1.2837e-08 0.0013786 1.28385e-08 0 1.32355e-08 0 1.3237e-08 0.0013786 1.32385e-08 0 1.36355e-08 0 1.3637e-08 0.0013786 1.36385e-08 0 1.40355e-08 0 1.4037e-08 0.0013786 1.40385e-08 0 1.44355e-08 0 1.4437e-08 0.0013786 1.44385e-08 0 1.48355e-08 0 1.4837e-08 0.0013786 1.48385e-08 0 1.52355e-08 0 1.5237e-08 0.0013786 1.52385e-08 0 1.56355e-08 0 1.5637e-08 0.0013786 1.56385e-08 0 1.60355e-08 0 1.6037e-08 0.0013786 1.60385e-08 0 1.64355e-08 0 1.6437e-08 0.0013786 1.64385e-08 0 1.68355e-08 0 1.6837e-08 0.0013786 1.68385e-08 0 1.72355e-08 0 1.7237e-08 0.0013786 1.72385e-08 0 1.76355e-08 0 1.7637e-08 0.0013786 1.76385e-08 0 1.80355e-08 0 1.8037e-08 0.0013786 1.80385e-08 0 1.84355e-08 0 1.8437e-08 0.0013786 1.84385e-08 0 1.88355e-08 0 1.8837e-08 0.0013786 1.88385e-08 0 1.92355e-08 0 1.9237e-08 0.0013786 1.92385e-08 0 1.96355e-08 0 1.9637e-08 0.0013786 1.96385e-08 0 2.00355e-08 0 2.0037e-08 0.0013786 2.00385e-08 0 2.04355e-08 0 2.0437e-08 0.0013786 2.04385e-08 0 2.08355e-08 0 2.0837e-08 0.0013786 2.08385e-08 0 2.12355e-08 0 2.1237e-08 0.0013786 2.12385e-08 0 2.16355e-08 0 2.1637e-08 0.0013786 2.16385e-08 0 2.20355e-08 0 2.2037e-08 0.0013786 2.20385e-08 0 2.24355e-08 0 2.2437e-08 0.0013786 2.24385e-08 0 2.28355e-08 0 2.2837e-08 0.0013786 2.28385e-08 0 2.32355e-08 0 2.3237e-08 0.0013786 2.32385e-08 0 2.36355e-08 0 2.3637e-08 0.0013786 2.36385e-08 0 2.40355e-08 0 2.4037e-08 0.0013786 2.40385e-08 0 2.44355e-08 0 2.4437e-08 0.0013786 2.44385e-08 0 2.48355e-08 0 2.4837e-08 0.0013786 2.48385e-08 0 2.52355e-08 0 2.5237e-08 0.0013786 2.52385e-08 0 2.56355e-08 0 2.5637e-08 0.0013786 2.56385e-08 0 2.60355e-08 0 2.6037e-08 0.0013786 2.60385e-08 0 2.64355e-08 0 2.6437e-08 0.0013786 2.64385e-08 0 2.68355e-08 0 2.6837e-08 0.0013786 2.68385e-08 0 2.72355e-08 0 2.7237e-08 0.0013786 2.72385e-08 0 2.76355e-08 0 2.7637e-08 0.0013786 2.76385e-08 0 2.80355e-08 0 2.8037e-08 0.0013786 2.80385e-08 0 2.84355e-08 0 2.8437e-08 0.0013786 2.84385e-08 0 2.88355e-08 0 2.8837e-08 0.0013786 2.88385e-08 0 2.92355e-08 0 2.9237e-08 0.0013786 2.92385e-08 0 2.96355e-08 0 2.9637e-08 0.0013786 2.96385e-08 0 3.00355e-08 0 3.0037e-08 0.0013786 3.00385e-08 0 3.04355e-08 0 3.0437e-08 0.0013786 3.04385e-08 0 3.08355e-08 0 3.0837e-08 0.0013786 3.08385e-08 0 3.12355e-08 0 3.1237e-08 0.0013786 3.12385e-08 0 3.16355e-08 0 3.1637e-08 0.0013786 3.16385e-08 0 3.20355e-08 0 3.2037e-08 0.0013786 3.20385e-08 0 3.24355e-08 0 3.2437e-08 0.0013786 3.24385e-08 0 3.28355e-08 0 3.2837e-08 0.0013786 3.28385e-08 0 3.32355e-08 0 3.3237e-08 0.0013786 3.32385e-08 0 3.36355e-08 0 3.3637e-08 0.0013786 3.36385e-08 0 3.40355e-08 0 3.4037e-08 0.0013786 3.40385e-08 0 3.44355e-08 0 3.4437e-08 0.0013786 3.44385e-08 0 3.48355e-08 0 3.4837e-08 0.0013786 3.48385e-08 0 3.52355e-08 0 3.5237e-08 0.0013786 3.52385e-08 0 3.56355e-08 0 3.5637e-08 0.0013786 3.56385e-08 0 3.60355e-08 0 3.6037e-08 0.0013786 3.60385e-08 0 3.64355e-08 0 3.6437e-08 0.0013786 3.64385e-08 0 3.68355e-08 0 3.6837e-08 0.0013786 3.68385e-08 0 3.72355e-08 0 3.7237e-08 0.0013786 3.72385e-08 0 3.76355e-08 0 3.7637e-08 0.0013786 3.76385e-08 0 3.80355e-08 0 3.8037e-08 0.0013786 3.80385e-08 0 3.84355e-08 0 3.8437e-08 0.0013786 3.84385e-08 0 3.88355e-08 0 3.8837e-08 0.0013786 3.88385e-08 0 3.92355e-08 0 3.9237e-08 0.0013786 3.92385e-08 0 3.96355e-08 0 3.9637e-08 0.0013786 3.96385e-08 0 4.00355e-08 0 4.0037e-08 0.0013786 4.00385e-08 0 4.04355e-08 0 4.0437e-08 0.0013786 4.04385e-08 0 4.08355e-08 0 4.0837e-08 0.0013786 4.08385e-08 0 4.12355e-08 0 4.1237e-08 0.0013786 4.12385e-08 0 4.16355e-08 0 4.1637e-08 0.0013786 4.16385e-08 0 4.20355e-08 0 4.2037e-08 0.0013786 4.20385e-08 0 4.24355e-08 0 4.2437e-08 0.0013786 4.24385e-08 0 4.28355e-08 0 4.2837e-08 0.0013786 4.28385e-08 0 4.32355e-08 0 4.3237e-08 0.0013786 4.32385e-08 0 4.36355e-08 0 4.3637e-08 0.0013786 4.36385e-08 0 4.40355e-08 0 4.4037e-08 0.0013786 4.40385e-08 0 4.44355e-08 0 4.4437e-08 0.0013786 4.44385e-08 0 4.48355e-08 0 4.4837e-08 0.0013786 4.48385e-08 0 4.52355e-08 0 4.5237e-08 0.0013786 4.52385e-08 0 4.56355e-08 0 4.5637e-08 0.0013786 4.56385e-08 0 4.60355e-08 0 4.6037e-08 0.0013786 4.60385e-08 0 4.64355e-08 0 4.6437e-08 0.0013786 4.64385e-08 0 4.68355e-08 0 4.6837e-08 0.0013786 4.68385e-08 0 4.72355e-08 0 4.7237e-08 0.0013786 4.72385e-08 0 4.76355e-08 0 4.7637e-08 0.0013786 4.76385e-08 0 4.80355e-08 0 4.8037e-08 0.0013786 4.80385e-08 0 4.84355e-08 0 4.8437e-08 0.0013786 4.84385e-08 0 4.88355e-08 0 4.8837e-08 0.0013786 4.88385e-08 0 4.92355e-08 0 4.9237e-08 0.0013786 4.92385e-08 0 4.96355e-08 0 4.9637e-08 0.0013786 4.96385e-08 0 5.00355e-08 0 5.0037e-08 0.0013786 5.00385e-08 0 5.04355e-08 0 5.0437e-08 0.0013786 5.04385e-08 0 5.08355e-08 0 5.0837e-08 0.0013786 5.08385e-08 0)
IB0_|B 0 B0_  PWL(0 0 5.15e-11 0 5.3e-11 0.0013786 5.45e-11 0 2.515e-10 0 2.53e-10 0.0013786 2.545e-10 0 8.515e-10 0 8.53e-10 0.0013786 8.545e-10 0 1.0515e-09 0 1.053e-09 0.0013786 1.0545e-09 0 1.6515e-09 0 1.653e-09 0.0013786 1.6545e-09 0 1.8515e-09 0 1.853e-09 0.0013786 1.8545e-09 0 2.4515e-09 0 2.453e-09 0.0013786 2.4545e-09 0 2.6515e-09 0 2.653e-09 0.0013786 2.6545e-09 0 3.2515e-09 0 3.253e-09 0.0013786 3.2545e-09 0 3.4515e-09 0 3.453e-09 0.0013786 3.4545e-09 0 4.0515e-09 0 4.053e-09 0.0013786 4.0545e-09 0 4.2515e-09 0 4.253e-09 0.0013786 4.2545e-09 0 4.8515e-09 0 4.853e-09 0.0013786 4.8545e-09 0 5.0515e-09 0 5.053e-09 0.0013786 5.0545e-09 0 5.6515e-09 0 5.653e-09 0.0013786 5.6545e-09 0 5.8515e-09 0 5.853e-09 0.0013786 5.8545e-09 0 6.4515e-09 0 6.453e-09 0.0013786 6.4545e-09 0 6.6515e-09 0 6.653e-09 0.0013786 6.6545e-09 0 7.2515e-09 0 7.253e-09 0.0013786 7.2545e-09 0 7.4515e-09 0 7.453e-09 0.0013786 7.4545e-09 0 8.0515e-09 0 8.053e-09 0.0013786 8.0545e-09 0 8.2515e-09 0 8.253e-09 0.0013786 8.2545e-09 0 8.8515e-09 0 8.853e-09 0.0013786 8.8545e-09 0 9.0515e-09 0 9.053e-09 0.0013786 9.0545e-09 0 9.6515e-09 0 9.653e-09 0.0013786 9.6545e-09 0 9.8515e-09 0 9.853e-09 0.0013786 9.8545e-09 0 1.04515e-08 0 1.0453e-08 0.0013786 1.04545e-08 0 1.06515e-08 0 1.0653e-08 0.0013786 1.06545e-08 0 1.12515e-08 0 1.1253e-08 0.0013786 1.12545e-08 0 1.14515e-08 0 1.1453e-08 0.0013786 1.14545e-08 0 1.20515e-08 0 1.2053e-08 0.0013786 1.20545e-08 0 1.22515e-08 0 1.2253e-08 0.0013786 1.22545e-08 0 1.28515e-08 0 1.2853e-08 0.0013786 1.28545e-08 0 1.30515e-08 0 1.3053e-08 0.0013786 1.30545e-08 0 1.36515e-08 0 1.3653e-08 0.0013786 1.36545e-08 0 1.38515e-08 0 1.3853e-08 0.0013786 1.38545e-08 0 1.44515e-08 0 1.4453e-08 0.0013786 1.44545e-08 0 1.46515e-08 0 1.4653e-08 0.0013786 1.46545e-08 0 1.52515e-08 0 1.5253e-08 0.0013786 1.52545e-08 0 1.54515e-08 0 1.5453e-08 0.0013786 1.54545e-08 0 1.60515e-08 0 1.6053e-08 0.0013786 1.60545e-08 0 1.62515e-08 0 1.6253e-08 0.0013786 1.62545e-08 0 1.68515e-08 0 1.6853e-08 0.0013786 1.68545e-08 0 1.70515e-08 0 1.7053e-08 0.0013786 1.70545e-08 0 1.76515e-08 0 1.7653e-08 0.0013786 1.76545e-08 0 1.78515e-08 0 1.7853e-08 0.0013786 1.78545e-08 0 1.84515e-08 0 1.8453e-08 0.0013786 1.84545e-08 0 1.86515e-08 0 1.8653e-08 0.0013786 1.86545e-08 0 1.92515e-08 0 1.9253e-08 0.0013786 1.92545e-08 0 1.94515e-08 0 1.9453e-08 0.0013786 1.94545e-08 0 2.00515e-08 0 2.0053e-08 0.0013786 2.00545e-08 0 2.02515e-08 0 2.0253e-08 0.0013786 2.02545e-08 0 2.08515e-08 0 2.0853e-08 0.0013786 2.08545e-08 0 2.10515e-08 0 2.1053e-08 0.0013786 2.10545e-08 0 2.16515e-08 0 2.1653e-08 0.0013786 2.16545e-08 0 2.18515e-08 0 2.1853e-08 0.0013786 2.18545e-08 0 2.24515e-08 0 2.2453e-08 0.0013786 2.24545e-08 0 2.26515e-08 0 2.2653e-08 0.0013786 2.26545e-08 0 2.32515e-08 0 2.3253e-08 0.0013786 2.32545e-08 0 2.34515e-08 0 2.3453e-08 0.0013786 2.34545e-08 0 2.40515e-08 0 2.4053e-08 0.0013786 2.40545e-08 0 2.42515e-08 0 2.4253e-08 0.0013786 2.42545e-08 0 2.48515e-08 0 2.4853e-08 0.0013786 2.48545e-08 0 2.50515e-08 0 2.5053e-08 0.0013786 2.50545e-08 0 2.56515e-08 0 2.5653e-08 0.0013786 2.56545e-08 0 2.58515e-08 0 2.5853e-08 0.0013786 2.58545e-08 0 2.64515e-08 0 2.6453e-08 0.0013786 2.64545e-08 0 2.66515e-08 0 2.6653e-08 0.0013786 2.66545e-08 0 2.72515e-08 0 2.7253e-08 0.0013786 2.72545e-08 0 2.74515e-08 0 2.7453e-08 0.0013786 2.74545e-08 0 2.80515e-08 0 2.8053e-08 0.0013786 2.80545e-08 0 2.82515e-08 0 2.8253e-08 0.0013786 2.82545e-08 0 2.88515e-08 0 2.8853e-08 0.0013786 2.88545e-08 0 2.90515e-08 0 2.9053e-08 0.0013786 2.90545e-08 0 2.96515e-08 0 2.9653e-08 0.0013786 2.96545e-08 0 2.98515e-08 0 2.9853e-08 0.0013786 2.98545e-08 0 3.04515e-08 0 3.0453e-08 0.0013786 3.04545e-08 0 3.06515e-08 0 3.0653e-08 0.0013786 3.06545e-08 0 3.12515e-08 0 3.1253e-08 0.0013786 3.12545e-08 0 3.14515e-08 0 3.1453e-08 0.0013786 3.14545e-08 0 3.20515e-08 0 3.2053e-08 0.0013786 3.20545e-08 0 3.22515e-08 0 3.2253e-08 0.0013786 3.22545e-08 0 3.28515e-08 0 3.2853e-08 0.0013786 3.28545e-08 0 3.30515e-08 0 3.3053e-08 0.0013786 3.30545e-08 0 3.36515e-08 0 3.3653e-08 0.0013786 3.36545e-08 0 3.38515e-08 0 3.3853e-08 0.0013786 3.38545e-08 0 3.44515e-08 0 3.4453e-08 0.0013786 3.44545e-08 0 3.46515e-08 0 3.4653e-08 0.0013786 3.46545e-08 0 3.52515e-08 0 3.5253e-08 0.0013786 3.52545e-08 0 3.54515e-08 0 3.5453e-08 0.0013786 3.54545e-08 0 3.60515e-08 0 3.6053e-08 0.0013786 3.60545e-08 0 3.62515e-08 0 3.6253e-08 0.0013786 3.62545e-08 0 3.68515e-08 0 3.6853e-08 0.0013786 3.68545e-08 0 3.70515e-08 0 3.7053e-08 0.0013786 3.70545e-08 0 3.76515e-08 0 3.7653e-08 0.0013786 3.76545e-08 0 3.78515e-08 0 3.7853e-08 0.0013786 3.78545e-08 0 3.84515e-08 0 3.8453e-08 0.0013786 3.84545e-08 0 3.86515e-08 0 3.8653e-08 0.0013786 3.86545e-08 0 3.92515e-08 0 3.9253e-08 0.0013786 3.92545e-08 0 3.94515e-08 0 3.9453e-08 0.0013786 3.94545e-08 0 4.00515e-08 0 4.0053e-08 0.0013786 4.00545e-08 0 4.02515e-08 0 4.0253e-08 0.0013786 4.02545e-08 0 4.08515e-08 0 4.0853e-08 0.0013786 4.08545e-08 0 4.10515e-08 0 4.1053e-08 0.0013786 4.10545e-08 0 4.16515e-08 0 4.1653e-08 0.0013786 4.16545e-08 0 4.18515e-08 0 4.1853e-08 0.0013786 4.18545e-08 0 4.24515e-08 0 4.2453e-08 0.0013786 4.24545e-08 0 4.26515e-08 0 4.2653e-08 0.0013786 4.26545e-08 0 4.32515e-08 0 4.3253e-08 0.0013786 4.32545e-08 0 4.34515e-08 0 4.3453e-08 0.0013786 4.34545e-08 0 4.40515e-08 0 4.4053e-08 0.0013786 4.40545e-08 0 4.42515e-08 0 4.4253e-08 0.0013786 4.42545e-08 0 4.48515e-08 0 4.4853e-08 0.0013786 4.48545e-08 0 4.50515e-08 0 4.5053e-08 0.0013786 4.50545e-08 0 4.56515e-08 0 4.5653e-08 0.0013786 4.56545e-08 0 4.58515e-08 0 4.5853e-08 0.0013786 4.58545e-08 0 4.64515e-08 0 4.6453e-08 0.0013786 4.64545e-08 0 4.66515e-08 0 4.6653e-08 0.0013786 4.66545e-08 0 4.72515e-08 0 4.7253e-08 0.0013786 4.72545e-08 0 4.74515e-08 0 4.7453e-08 0.0013786 4.74545e-08 0 4.80515e-08 0 4.8053e-08 0.0013786 4.80545e-08 0 4.82515e-08 0 4.8253e-08 0.0013786 4.82545e-08 0 4.88515e-08 0 4.8853e-08 0.0013786 4.88545e-08 0 4.90515e-08 0 4.9053e-08 0.0013786 4.90545e-08 0 4.96515e-08 0 4.9653e-08 0.0013786 4.96545e-08 0 4.98515e-08 0 4.9853e-08 0.0013786 4.98545e-08 0 5.04515e-08 0 5.0453e-08 0.0013786 5.04545e-08 0 5.06515e-08 0 5.0653e-08 0.0013786 5.06545e-08 0)
IA1_|C 0 A1_  PWL(0 0 6.75e-11 0 6.9e-11 0.0013786 7.05e-11 0 2.675e-10 0 2.69e-10 0.0013786 2.705e-10 0 4.675e-10 0 4.69e-10 0.0013786 4.705e-10 0 6.675e-10 0 6.69e-10 0.0013786 6.705e-10 0 1.6675e-09 0 1.669e-09 0.0013786 1.6705e-09 0 1.8675e-09 0 1.869e-09 0.0013786 1.8705e-09 0 2.0675e-09 0 2.069e-09 0.0013786 2.0705e-09 0 2.2675e-09 0 2.269e-09 0.0013786 2.2705e-09 0 3.2675e-09 0 3.269e-09 0.0013786 3.2705e-09 0 3.4675e-09 0 3.469e-09 0.0013786 3.4705e-09 0 3.6675e-09 0 3.669e-09 0.0013786 3.6705e-09 0 3.8675e-09 0 3.869e-09 0.0013786 3.8705e-09 0 4.8675e-09 0 4.869e-09 0.0013786 4.8705e-09 0 5.0675e-09 0 5.069e-09 0.0013786 5.0705e-09 0 5.2675e-09 0 5.269e-09 0.0013786 5.2705e-09 0 5.4675e-09 0 5.469e-09 0.0013786 5.4705e-09 0 6.4675e-09 0 6.469e-09 0.0013786 6.4705e-09 0 6.6675e-09 0 6.669e-09 0.0013786 6.6705e-09 0 6.8675e-09 0 6.869e-09 0.0013786 6.8705e-09 0 7.0675e-09 0 7.069e-09 0.0013786 7.0705e-09 0 8.0675e-09 0 8.069e-09 0.0013786 8.0705e-09 0 8.2675e-09 0 8.269e-09 0.0013786 8.2705e-09 0 8.4675e-09 0 8.469e-09 0.0013786 8.4705e-09 0 8.6675e-09 0 8.669e-09 0.0013786 8.6705e-09 0 9.6675e-09 0 9.669e-09 0.0013786 9.6705e-09 0 9.8675e-09 0 9.869e-09 0.0013786 9.8705e-09 0 1.00675e-08 0 1.0069e-08 0.0013786 1.00705e-08 0 1.02675e-08 0 1.0269e-08 0.0013786 1.02705e-08 0 1.12675e-08 0 1.1269e-08 0.0013786 1.12705e-08 0 1.14675e-08 0 1.1469e-08 0.0013786 1.14705e-08 0 1.16675e-08 0 1.1669e-08 0.0013786 1.16705e-08 0 1.18675e-08 0 1.1869e-08 0.0013786 1.18705e-08 0 1.28675e-08 0 1.2869e-08 0.0013786 1.28705e-08 0 1.30675e-08 0 1.3069e-08 0.0013786 1.30705e-08 0 1.32675e-08 0 1.3269e-08 0.0013786 1.32705e-08 0 1.34675e-08 0 1.3469e-08 0.0013786 1.34705e-08 0 1.44675e-08 0 1.4469e-08 0.0013786 1.44705e-08 0 1.46675e-08 0 1.4669e-08 0.0013786 1.46705e-08 0 1.48675e-08 0 1.4869e-08 0.0013786 1.48705e-08 0 1.50675e-08 0 1.5069e-08 0.0013786 1.50705e-08 0 1.60675e-08 0 1.6069e-08 0.0013786 1.60705e-08 0 1.62675e-08 0 1.6269e-08 0.0013786 1.62705e-08 0 1.64675e-08 0 1.6469e-08 0.0013786 1.64705e-08 0 1.66675e-08 0 1.6669e-08 0.0013786 1.66705e-08 0 1.76675e-08 0 1.7669e-08 0.0013786 1.76705e-08 0 1.78675e-08 0 1.7869e-08 0.0013786 1.78705e-08 0 1.80675e-08 0 1.8069e-08 0.0013786 1.80705e-08 0 1.82675e-08 0 1.8269e-08 0.0013786 1.82705e-08 0 1.92675e-08 0 1.9269e-08 0.0013786 1.92705e-08 0 1.94675e-08 0 1.9469e-08 0.0013786 1.94705e-08 0 1.96675e-08 0 1.9669e-08 0.0013786 1.96705e-08 0 1.98675e-08 0 1.9869e-08 0.0013786 1.98705e-08 0 2.08675e-08 0 2.0869e-08 0.0013786 2.08705e-08 0 2.10675e-08 0 2.1069e-08 0.0013786 2.10705e-08 0 2.12675e-08 0 2.1269e-08 0.0013786 2.12705e-08 0 2.14675e-08 0 2.1469e-08 0.0013786 2.14705e-08 0 2.24675e-08 0 2.2469e-08 0.0013786 2.24705e-08 0 2.26675e-08 0 2.2669e-08 0.0013786 2.26705e-08 0 2.28675e-08 0 2.2869e-08 0.0013786 2.28705e-08 0 2.30675e-08 0 2.3069e-08 0.0013786 2.30705e-08 0 2.40675e-08 0 2.4069e-08 0.0013786 2.40705e-08 0 2.42675e-08 0 2.4269e-08 0.0013786 2.42705e-08 0 2.44675e-08 0 2.4469e-08 0.0013786 2.44705e-08 0 2.46675e-08 0 2.4669e-08 0.0013786 2.46705e-08 0 2.56675e-08 0 2.5669e-08 0.0013786 2.56705e-08 0 2.58675e-08 0 2.5869e-08 0.0013786 2.58705e-08 0 2.60675e-08 0 2.6069e-08 0.0013786 2.60705e-08 0 2.62675e-08 0 2.6269e-08 0.0013786 2.62705e-08 0 2.72675e-08 0 2.7269e-08 0.0013786 2.72705e-08 0 2.74675e-08 0 2.7469e-08 0.0013786 2.74705e-08 0 2.76675e-08 0 2.7669e-08 0.0013786 2.76705e-08 0 2.78675e-08 0 2.7869e-08 0.0013786 2.78705e-08 0 2.88675e-08 0 2.8869e-08 0.0013786 2.88705e-08 0 2.90675e-08 0 2.9069e-08 0.0013786 2.90705e-08 0 2.92675e-08 0 2.9269e-08 0.0013786 2.92705e-08 0 2.94675e-08 0 2.9469e-08 0.0013786 2.94705e-08 0 3.04675e-08 0 3.0469e-08 0.0013786 3.04705e-08 0 3.06675e-08 0 3.0669e-08 0.0013786 3.06705e-08 0 3.08675e-08 0 3.0869e-08 0.0013786 3.08705e-08 0 3.10675e-08 0 3.1069e-08 0.0013786 3.10705e-08 0 3.20675e-08 0 3.2069e-08 0.0013786 3.20705e-08 0 3.22675e-08 0 3.2269e-08 0.0013786 3.22705e-08 0 3.24675e-08 0 3.2469e-08 0.0013786 3.24705e-08 0 3.26675e-08 0 3.2669e-08 0.0013786 3.26705e-08 0 3.36675e-08 0 3.3669e-08 0.0013786 3.36705e-08 0 3.38675e-08 0 3.3869e-08 0.0013786 3.38705e-08 0 3.40675e-08 0 3.4069e-08 0.0013786 3.40705e-08 0 3.42675e-08 0 3.4269e-08 0.0013786 3.42705e-08 0 3.52675e-08 0 3.5269e-08 0.0013786 3.52705e-08 0 3.54675e-08 0 3.5469e-08 0.0013786 3.54705e-08 0 3.56675e-08 0 3.5669e-08 0.0013786 3.56705e-08 0 3.58675e-08 0 3.5869e-08 0.0013786 3.58705e-08 0 3.68675e-08 0 3.6869e-08 0.0013786 3.68705e-08 0 3.70675e-08 0 3.7069e-08 0.0013786 3.70705e-08 0 3.72675e-08 0 3.7269e-08 0.0013786 3.72705e-08 0 3.74675e-08 0 3.7469e-08 0.0013786 3.74705e-08 0 3.84675e-08 0 3.8469e-08 0.0013786 3.84705e-08 0 3.86675e-08 0 3.8669e-08 0.0013786 3.86705e-08 0 3.88675e-08 0 3.8869e-08 0.0013786 3.88705e-08 0 3.90675e-08 0 3.9069e-08 0.0013786 3.90705e-08 0 4.00675e-08 0 4.0069e-08 0.0013786 4.00705e-08 0 4.02675e-08 0 4.0269e-08 0.0013786 4.02705e-08 0 4.04675e-08 0 4.0469e-08 0.0013786 4.04705e-08 0 4.06675e-08 0 4.0669e-08 0.0013786 4.06705e-08 0 4.16675e-08 0 4.1669e-08 0.0013786 4.16705e-08 0 4.18675e-08 0 4.1869e-08 0.0013786 4.18705e-08 0 4.20675e-08 0 4.2069e-08 0.0013786 4.20705e-08 0 4.22675e-08 0 4.2269e-08 0.0013786 4.22705e-08 0 4.32675e-08 0 4.3269e-08 0.0013786 4.32705e-08 0 4.34675e-08 0 4.3469e-08 0.0013786 4.34705e-08 0 4.36675e-08 0 4.3669e-08 0.0013786 4.36705e-08 0 4.38675e-08 0 4.3869e-08 0.0013786 4.38705e-08 0 4.48675e-08 0 4.4869e-08 0.0013786 4.48705e-08 0 4.50675e-08 0 4.5069e-08 0.0013786 4.50705e-08 0 4.52675e-08 0 4.5269e-08 0.0013786 4.52705e-08 0 4.54675e-08 0 4.5469e-08 0.0013786 4.54705e-08 0 4.64675e-08 0 4.6469e-08 0.0013786 4.64705e-08 0 4.66675e-08 0 4.6669e-08 0.0013786 4.66705e-08 0 4.68675e-08 0 4.6869e-08 0.0013786 4.68705e-08 0 4.70675e-08 0 4.7069e-08 0.0013786 4.70705e-08 0 4.80675e-08 0 4.8069e-08 0.0013786 4.80705e-08 0 4.82675e-08 0 4.8269e-08 0.0013786 4.82705e-08 0 4.84675e-08 0 4.8469e-08 0.0013786 4.84705e-08 0 4.86675e-08 0 4.8669e-08 0.0013786 4.86705e-08 0 4.96675e-08 0 4.9669e-08 0.0013786 4.96705e-08 0 4.98675e-08 0 4.9869e-08 0.0013786 4.98705e-08 0 5.00675e-08 0 5.0069e-08 0.0013786 5.00705e-08 0 5.02675e-08 0 5.0269e-08 0.0013786 5.02705e-08 0)
IB1_|D 0 B1_  PWL(0 0 8.35e-11 0 8.5e-11 0.0013786 8.65e-11 0 2.835e-10 0 2.85e-10 0.0013786 2.865e-10 0 4.835e-10 0 4.85e-10 0.0013786 4.865e-10 0 6.835e-10 0 6.85e-10 0.0013786 6.865e-10 0 8.835e-10 0 8.85e-10 0.0013786 8.865e-10 0 1.0835e-09 0 1.085e-09 0.0013786 1.0865e-09 0 1.2835e-09 0 1.285e-09 0.0013786 1.2865e-09 0 1.4835e-09 0 1.485e-09 0.0013786 1.4865e-09 0 3.2835e-09 0 3.285e-09 0.0013786 3.2865e-09 0 3.4835e-09 0 3.485e-09 0.0013786 3.4865e-09 0 3.6835e-09 0 3.685e-09 0.0013786 3.6865e-09 0 3.8835e-09 0 3.885e-09 0.0013786 3.8865e-09 0 4.0835e-09 0 4.085e-09 0.0013786 4.0865e-09 0 4.2835e-09 0 4.285e-09 0.0013786 4.2865e-09 0 4.4835e-09 0 4.485e-09 0.0013786 4.4865e-09 0 4.6835e-09 0 4.685e-09 0.0013786 4.6865e-09 0 6.4835e-09 0 6.485e-09 0.0013786 6.4865e-09 0 6.6835e-09 0 6.685e-09 0.0013786 6.6865e-09 0 6.8835e-09 0 6.885e-09 0.0013786 6.8865e-09 0 7.0835e-09 0 7.085e-09 0.0013786 7.0865e-09 0 7.2835e-09 0 7.285e-09 0.0013786 7.2865e-09 0 7.4835e-09 0 7.485e-09 0.0013786 7.4865e-09 0 7.6835e-09 0 7.685e-09 0.0013786 7.6865e-09 0 7.8835e-09 0 7.885e-09 0.0013786 7.8865e-09 0 9.6835e-09 0 9.685e-09 0.0013786 9.6865e-09 0 9.8835e-09 0 9.885e-09 0.0013786 9.8865e-09 0 1.00835e-08 0 1.0085e-08 0.0013786 1.00865e-08 0 1.02835e-08 0 1.0285e-08 0.0013786 1.02865e-08 0 1.04835e-08 0 1.0485e-08 0.0013786 1.04865e-08 0 1.06835e-08 0 1.0685e-08 0.0013786 1.06865e-08 0 1.08835e-08 0 1.0885e-08 0.0013786 1.08865e-08 0 1.10835e-08 0 1.1085e-08 0.0013786 1.10865e-08 0 1.28835e-08 0 1.2885e-08 0.0013786 1.28865e-08 0 1.30835e-08 0 1.3085e-08 0.0013786 1.30865e-08 0 1.32835e-08 0 1.3285e-08 0.0013786 1.32865e-08 0 1.34835e-08 0 1.3485e-08 0.0013786 1.34865e-08 0 1.36835e-08 0 1.3685e-08 0.0013786 1.36865e-08 0 1.38835e-08 0 1.3885e-08 0.0013786 1.38865e-08 0 1.40835e-08 0 1.4085e-08 0.0013786 1.40865e-08 0 1.42835e-08 0 1.4285e-08 0.0013786 1.42865e-08 0 1.60835e-08 0 1.6085e-08 0.0013786 1.60865e-08 0 1.62835e-08 0 1.6285e-08 0.0013786 1.62865e-08 0 1.64835e-08 0 1.6485e-08 0.0013786 1.64865e-08 0 1.66835e-08 0 1.6685e-08 0.0013786 1.66865e-08 0 1.68835e-08 0 1.6885e-08 0.0013786 1.68865e-08 0 1.70835e-08 0 1.7085e-08 0.0013786 1.70865e-08 0 1.72835e-08 0 1.7285e-08 0.0013786 1.72865e-08 0 1.74835e-08 0 1.7485e-08 0.0013786 1.74865e-08 0 1.92835e-08 0 1.9285e-08 0.0013786 1.92865e-08 0 1.94835e-08 0 1.9485e-08 0.0013786 1.94865e-08 0 1.96835e-08 0 1.9685e-08 0.0013786 1.96865e-08 0 1.98835e-08 0 1.9885e-08 0.0013786 1.98865e-08 0 2.00835e-08 0 2.0085e-08 0.0013786 2.00865e-08 0 2.02835e-08 0 2.0285e-08 0.0013786 2.02865e-08 0 2.04835e-08 0 2.0485e-08 0.0013786 2.04865e-08 0 2.06835e-08 0 2.0685e-08 0.0013786 2.06865e-08 0 2.24835e-08 0 2.2485e-08 0.0013786 2.24865e-08 0 2.26835e-08 0 2.2685e-08 0.0013786 2.26865e-08 0 2.28835e-08 0 2.2885e-08 0.0013786 2.28865e-08 0 2.30835e-08 0 2.3085e-08 0.0013786 2.30865e-08 0 2.32835e-08 0 2.3285e-08 0.0013786 2.32865e-08 0 2.34835e-08 0 2.3485e-08 0.0013786 2.34865e-08 0 2.36835e-08 0 2.3685e-08 0.0013786 2.36865e-08 0 2.38835e-08 0 2.3885e-08 0.0013786 2.38865e-08 0 2.56835e-08 0 2.5685e-08 0.0013786 2.56865e-08 0 2.58835e-08 0 2.5885e-08 0.0013786 2.58865e-08 0 2.60835e-08 0 2.6085e-08 0.0013786 2.60865e-08 0 2.62835e-08 0 2.6285e-08 0.0013786 2.62865e-08 0 2.64835e-08 0 2.6485e-08 0.0013786 2.64865e-08 0 2.66835e-08 0 2.6685e-08 0.0013786 2.66865e-08 0 2.68835e-08 0 2.6885e-08 0.0013786 2.68865e-08 0 2.70835e-08 0 2.7085e-08 0.0013786 2.70865e-08 0 2.88835e-08 0 2.8885e-08 0.0013786 2.88865e-08 0 2.90835e-08 0 2.9085e-08 0.0013786 2.90865e-08 0 2.92835e-08 0 2.9285e-08 0.0013786 2.92865e-08 0 2.94835e-08 0 2.9485e-08 0.0013786 2.94865e-08 0 2.96835e-08 0 2.9685e-08 0.0013786 2.96865e-08 0 2.98835e-08 0 2.9885e-08 0.0013786 2.98865e-08 0 3.00835e-08 0 3.0085e-08 0.0013786 3.00865e-08 0 3.02835e-08 0 3.0285e-08 0.0013786 3.02865e-08 0 3.20835e-08 0 3.2085e-08 0.0013786 3.20865e-08 0 3.22835e-08 0 3.2285e-08 0.0013786 3.22865e-08 0 3.24835e-08 0 3.2485e-08 0.0013786 3.24865e-08 0 3.26835e-08 0 3.2685e-08 0.0013786 3.26865e-08 0 3.28835e-08 0 3.2885e-08 0.0013786 3.28865e-08 0 3.30835e-08 0 3.3085e-08 0.0013786 3.30865e-08 0 3.32835e-08 0 3.3285e-08 0.0013786 3.32865e-08 0 3.34835e-08 0 3.3485e-08 0.0013786 3.34865e-08 0 3.52835e-08 0 3.5285e-08 0.0013786 3.52865e-08 0 3.54835e-08 0 3.5485e-08 0.0013786 3.54865e-08 0 3.56835e-08 0 3.5685e-08 0.0013786 3.56865e-08 0 3.58835e-08 0 3.5885e-08 0.0013786 3.58865e-08 0 3.60835e-08 0 3.6085e-08 0.0013786 3.60865e-08 0 3.62835e-08 0 3.6285e-08 0.0013786 3.62865e-08 0 3.64835e-08 0 3.6485e-08 0.0013786 3.64865e-08 0 3.66835e-08 0 3.6685e-08 0.0013786 3.66865e-08 0 3.84835e-08 0 3.8485e-08 0.0013786 3.84865e-08 0 3.86835e-08 0 3.8685e-08 0.0013786 3.86865e-08 0 3.88835e-08 0 3.8885e-08 0.0013786 3.88865e-08 0 3.90835e-08 0 3.9085e-08 0.0013786 3.90865e-08 0 3.92835e-08 0 3.9285e-08 0.0013786 3.92865e-08 0 3.94835e-08 0 3.9485e-08 0.0013786 3.94865e-08 0 3.96835e-08 0 3.9685e-08 0.0013786 3.96865e-08 0 3.98835e-08 0 3.9885e-08 0.0013786 3.98865e-08 0 4.16835e-08 0 4.1685e-08 0.0013786 4.16865e-08 0 4.18835e-08 0 4.1885e-08 0.0013786 4.18865e-08 0 4.20835e-08 0 4.2085e-08 0.0013786 4.20865e-08 0 4.22835e-08 0 4.2285e-08 0.0013786 4.22865e-08 0 4.24835e-08 0 4.2485e-08 0.0013786 4.24865e-08 0 4.26835e-08 0 4.2685e-08 0.0013786 4.26865e-08 0 4.28835e-08 0 4.2885e-08 0.0013786 4.28865e-08 0 4.30835e-08 0 4.3085e-08 0.0013786 4.30865e-08 0 4.48835e-08 0 4.4885e-08 0.0013786 4.48865e-08 0 4.50835e-08 0 4.5085e-08 0.0013786 4.50865e-08 0 4.52835e-08 0 4.5285e-08 0.0013786 4.52865e-08 0 4.54835e-08 0 4.5485e-08 0.0013786 4.54865e-08 0 4.56835e-08 0 4.5685e-08 0.0013786 4.56865e-08 0 4.58835e-08 0 4.5885e-08 0.0013786 4.58865e-08 0 4.60835e-08 0 4.6085e-08 0.0013786 4.60865e-08 0 4.62835e-08 0 4.6285e-08 0.0013786 4.62865e-08 0 4.80835e-08 0 4.8085e-08 0.0013786 4.80865e-08 0 4.82835e-08 0 4.8285e-08 0.0013786 4.82865e-08 0 4.84835e-08 0 4.8485e-08 0.0013786 4.84865e-08 0 4.86835e-08 0 4.8685e-08 0.0013786 4.86865e-08 0 4.88835e-08 0 4.8885e-08 0.0013786 4.88865e-08 0 4.90835e-08 0 4.9085e-08 0.0013786 4.90865e-08 0 4.92835e-08 0 4.9285e-08 0.0013786 4.92865e-08 0 4.94835e-08 0 4.9485e-08 0.0013786 4.94865e-08 0)