*
.PARAM PHI0=2.067833848e-15
.PARAM B0=1
.PARAM IC0=0.0001
.PARAM ICRS=0.0006859904418
.PARAM B0RS=6.859904418
.PARAM RSHEET=2
.PARAM LSHEET=1.13e-12
.PARAM LP=2e-13
.PARAM LPTL=2e-12
.PARAM IC=2.5
.PARAM LB=2e-12
.PARAM BIASCOEF=0.7
.PARAM TCLOCK=2e-10
.PARAM OS=5.0000000000000005e-12
.PARAM STEP=0.08
.MODEL JJMIT JJ(RTYPE=1, VG=2.8MV, CAP=0.07PF, R0=160, RN=16, ICRIT=0.1MA)
.MODEL JJMIT JJ(RTYPE=1, VG=2.8MV, CAP=0.07PF, R0=160, RN=16, ICRIT=0.1MA)
.TRAN 1E-12 52000E-12
R_S0 S0 0  1
R_S1 S1 0  1
R_S2 S2 0  1
R_S3 S3 0  1
R_S4 S4 0  1
IA0|A 0 A0  PWL(0 0 3.4e-11 0 3.7e-11 0.0007 4e-11 0 4.34e-10 0 4.37e-10 0.0007 4.4e-10 0 8.34e-10 0 8.37e-10 0.0007 8.4e-10 0 1.234e-09 0 1.237e-09 0.0007 1.24e-09 0 1.634e-09 0 1.637e-09 0.0007 1.64e-09 0 2.034e-09 0 2.037e-09 0.0007 2.04e-09 0 2.434e-09 0 2.437e-09 0.0007 2.44e-09 0 2.834e-09 0 2.837e-09 0.0007 2.84e-09 0 3.234e-09 0 3.237e-09 0.0007 3.24e-09 0 3.634e-09 0 3.637e-09 0.0007 3.64e-09 0 4.034e-09 0 4.037e-09 0.0007 4.04e-09 0 4.434e-09 0 4.437e-09 0.0007 4.44e-09 0 4.834e-09 0 4.837e-09 0.0007 4.84e-09 0 5.234e-09 0 5.237e-09 0.0007 5.24e-09 0 5.634e-09 0 5.637e-09 0.0007 5.64e-09 0 6.034e-09 0 6.037e-09 0.0007 6.04e-09 0 6.434e-09 0 6.437e-09 0.0007 6.44e-09 0 6.834e-09 0 6.837e-09 0.0007 6.84e-09 0 7.234e-09 0 7.237e-09 0.0007 7.24e-09 0 7.634e-09 0 7.637e-09 0.0007 7.64e-09 0 8.034e-09 0 8.037e-09 0.0007 8.04e-09 0 8.434e-09 0 8.437e-09 0.0007 8.44e-09 0 8.834e-09 0 8.837e-09 0.0007 8.84e-09 0 9.234e-09 0 9.237e-09 0.0007 9.24e-09 0 9.634e-09 0 9.637e-09 0.0007 9.64e-09 0 1.0034e-08 0 1.0037e-08 0.0007 1.004e-08 0 1.0434e-08 0 1.0437e-08 0.0007 1.044e-08 0 1.0834e-08 0 1.0837e-08 0.0007 1.084e-08 0 1.1234e-08 0 1.1237e-08 0.0007 1.124e-08 0 1.1634e-08 0 1.1637e-08 0.0007 1.164e-08 0 1.2034e-08 0 1.2037e-08 0.0007 1.204e-08 0 1.2434e-08 0 1.2437e-08 0.0007 1.244e-08 0 1.2834e-08 0 1.2837e-08 0.0007 1.284e-08 0 1.3234e-08 0 1.3237e-08 0.0007 1.324e-08 0 1.3634e-08 0 1.3637e-08 0.0007 1.364e-08 0 1.4034e-08 0 1.4037e-08 0.0007 1.404e-08 0 1.4434e-08 0 1.4437e-08 0.0007 1.444e-08 0 1.4834e-08 0 1.4837e-08 0.0007 1.484e-08 0 1.5234e-08 0 1.5237e-08 0.0007 1.524e-08 0 1.5634e-08 0 1.5637e-08 0.0007 1.564e-08 0 1.6034e-08 0 1.6037e-08 0.0007 1.604e-08 0 1.6434e-08 0 1.6437e-08 0.0007 1.644e-08 0 1.6834e-08 0 1.6837e-08 0.0007 1.684e-08 0 1.7234e-08 0 1.7237e-08 0.0007 1.724e-08 0 1.7634e-08 0 1.7637e-08 0.0007 1.764e-08 0 1.8034e-08 0 1.8037e-08 0.0007 1.804e-08 0 1.8434e-08 0 1.8437e-08 0.0007 1.844e-08 0 1.8834e-08 0 1.8837e-08 0.0007 1.884e-08 0 1.9234e-08 0 1.9237e-08 0.0007 1.924e-08 0 1.9634e-08 0 1.9637e-08 0.0007 1.964e-08 0 2.0034e-08 0 2.0037e-08 0.0007 2.004e-08 0 2.0434e-08 0 2.0437e-08 0.0007 2.044e-08 0 2.0834e-08 0 2.0837e-08 0.0007 2.084e-08 0 2.1234e-08 0 2.1237e-08 0.0007 2.124e-08 0 2.1634e-08 0 2.1637e-08 0.0007 2.164e-08 0 2.2034e-08 0 2.2037e-08 0.0007 2.204e-08 0 2.2434e-08 0 2.2437e-08 0.0007 2.244e-08 0 2.2834e-08 0 2.2837e-08 0.0007 2.284e-08 0 2.3234e-08 0 2.3237e-08 0.0007 2.324e-08 0 2.3634e-08 0 2.3637e-08 0.0007 2.364e-08 0 2.4034e-08 0 2.4037e-08 0.0007 2.404e-08 0 2.4434e-08 0 2.4437e-08 0.0007 2.444e-08 0 2.4834e-08 0 2.4837e-08 0.0007 2.484e-08 0 2.5234e-08 0 2.5237e-08 0.0007 2.524e-08 0 2.5634e-08 0 2.5637e-08 0.0007 2.564e-08 0 2.6034e-08 0 2.6037e-08 0.0007 2.604e-08 0 2.6434e-08 0 2.6437e-08 0.0007 2.644e-08 0 2.6834e-08 0 2.6837e-08 0.0007 2.684e-08 0 2.7234e-08 0 2.7237e-08 0.0007 2.724e-08 0 2.7634e-08 0 2.7637e-08 0.0007 2.764e-08 0 2.8034e-08 0 2.8037e-08 0.0007 2.804e-08 0 2.8434e-08 0 2.8437e-08 0.0007 2.844e-08 0 2.8834e-08 0 2.8837e-08 0.0007 2.884e-08 0 2.9234e-08 0 2.9237e-08 0.0007 2.924e-08 0 2.9634e-08 0 2.9637e-08 0.0007 2.964e-08 0 3.0034e-08 0 3.0037e-08 0.0007 3.004e-08 0 3.0434e-08 0 3.0437e-08 0.0007 3.044e-08 0 3.0834e-08 0 3.0837e-08 0.0007 3.084e-08 0 3.1234e-08 0 3.1237e-08 0.0007 3.124e-08 0 3.1634e-08 0 3.1637e-08 0.0007 3.164e-08 0 3.2034e-08 0 3.2037e-08 0.0007 3.204e-08 0 3.2434e-08 0 3.2437e-08 0.0007 3.244e-08 0 3.2834e-08 0 3.2837e-08 0.0007 3.284e-08 0 3.3234e-08 0 3.3237e-08 0.0007 3.324e-08 0 3.3634e-08 0 3.3637e-08 0.0007 3.364e-08 0 3.4034e-08 0 3.4037e-08 0.0007 3.404e-08 0 3.4434e-08 0 3.4437e-08 0.0007 3.444e-08 0 3.4834e-08 0 3.4837e-08 0.0007 3.484e-08 0 3.5234e-08 0 3.5237e-08 0.0007 3.524e-08 0 3.5634e-08 0 3.5637e-08 0.0007 3.564e-08 0 3.6034e-08 0 3.6037e-08 0.0007 3.604e-08 0 3.6434e-08 0 3.6437e-08 0.0007 3.644e-08 0 3.6834e-08 0 3.6837e-08 0.0007 3.684e-08 0 3.7234e-08 0 3.7237e-08 0.0007 3.724e-08 0 3.7634e-08 0 3.7637e-08 0.0007 3.764e-08 0 3.8034e-08 0 3.8037e-08 0.0007 3.804e-08 0 3.8434e-08 0 3.8437e-08 0.0007 3.844e-08 0 3.8834e-08 0 3.8837e-08 0.0007 3.884e-08 0 3.9234e-08 0 3.9237e-08 0.0007 3.924e-08 0 3.9634e-08 0 3.9637e-08 0.0007 3.964e-08 0 4.0034e-08 0 4.0037e-08 0.0007 4.004e-08 0 4.0434e-08 0 4.0437e-08 0.0007 4.044e-08 0 4.0834e-08 0 4.0837e-08 0.0007 4.084e-08 0 4.1234e-08 0 4.1237e-08 0.0007 4.124e-08 0 4.1634e-08 0 4.1637e-08 0.0007 4.164e-08 0 4.2034e-08 0 4.2037e-08 0.0007 4.204e-08 0 4.2434e-08 0 4.2437e-08 0.0007 4.244e-08 0 4.2834e-08 0 4.2837e-08 0.0007 4.284e-08 0 4.3234e-08 0 4.3237e-08 0.0007 4.324e-08 0 4.3634e-08 0 4.3637e-08 0.0007 4.364e-08 0 4.4034e-08 0 4.4037e-08 0.0007 4.404e-08 0 4.4434e-08 0 4.4437e-08 0.0007 4.444e-08 0 4.4834e-08 0 4.4837e-08 0.0007 4.484e-08 0 4.5234e-08 0 4.5237e-08 0.0007 4.524e-08 0 4.5634e-08 0 4.5637e-08 0.0007 4.564e-08 0 4.6034e-08 0 4.6037e-08 0.0007 4.604e-08 0 4.6434e-08 0 4.6437e-08 0.0007 4.644e-08 0 4.6834e-08 0 4.6837e-08 0.0007 4.684e-08 0 4.7234e-08 0 4.7237e-08 0.0007 4.724e-08 0 4.7634e-08 0 4.7637e-08 0.0007 4.764e-08 0 4.8034e-08 0 4.8037e-08 0.0007 4.804e-08 0 4.8434e-08 0 4.8437e-08 0.0007 4.844e-08 0 4.8834e-08 0 4.8837e-08 0.0007 4.884e-08 0 4.9234e-08 0 4.9237e-08 0.0007 4.924e-08 0 4.9634e-08 0 4.9637e-08 0.0007 4.964e-08 0 5.0034e-08 0 5.0037e-08 0.0007 5.004e-08 0 5.0434e-08 0 5.0437e-08 0.0007 5.044e-08 0 5.0834e-08 0 5.0837e-08 0.0007 5.084e-08 0)
IB0|B 0 B0  PWL(0 0 5e-11 0 5.3e-11 0.0007 5.6e-11 0 2.5e-10 0 2.53e-10 0.0007 2.56e-10 0 8.5e-10 0 8.53e-10 0.0007 8.56e-10 0 1.05e-09 0 1.053e-09 0.0007 1.056e-09 0 1.65e-09 0 1.653e-09 0.0007 1.656e-09 0 1.85e-09 0 1.853e-09 0.0007 1.856e-09 0 2.45e-09 0 2.453e-09 0.0007 2.456e-09 0 2.65e-09 0 2.653e-09 0.0007 2.656e-09 0 3.25e-09 0 3.253e-09 0.0007 3.256e-09 0 3.45e-09 0 3.453e-09 0.0007 3.456e-09 0 4.05e-09 0 4.053e-09 0.0007 4.056e-09 0 4.25e-09 0 4.253e-09 0.0007 4.256e-09 0 4.85e-09 0 4.853e-09 0.0007 4.856e-09 0 5.05e-09 0 5.053e-09 0.0007 5.056e-09 0 5.65e-09 0 5.653e-09 0.0007 5.656e-09 0 5.85e-09 0 5.853e-09 0.0007 5.856e-09 0 6.45e-09 0 6.453e-09 0.0007 6.456e-09 0 6.65e-09 0 6.653e-09 0.0007 6.656e-09 0 7.25e-09 0 7.253e-09 0.0007 7.256e-09 0 7.45e-09 0 7.453e-09 0.0007 7.456e-09 0 8.05e-09 0 8.053e-09 0.0007 8.056e-09 0 8.25e-09 0 8.253e-09 0.0007 8.256e-09 0 8.85e-09 0 8.853e-09 0.0007 8.856e-09 0 9.05e-09 0 9.053e-09 0.0007 9.056e-09 0 9.65e-09 0 9.653e-09 0.0007 9.656e-09 0 9.85e-09 0 9.853e-09 0.0007 9.856e-09 0 1.045e-08 0 1.0453e-08 0.0007 1.0456e-08 0 1.065e-08 0 1.0653e-08 0.0007 1.0656e-08 0 1.125e-08 0 1.1253e-08 0.0007 1.1256e-08 0 1.145e-08 0 1.1453e-08 0.0007 1.1456e-08 0 1.205e-08 0 1.2053e-08 0.0007 1.2056e-08 0 1.225e-08 0 1.2253e-08 0.0007 1.2256e-08 0 1.285e-08 0 1.2853e-08 0.0007 1.2856e-08 0 1.305e-08 0 1.3053e-08 0.0007 1.3056e-08 0 1.365e-08 0 1.3653e-08 0.0007 1.3656e-08 0 1.385e-08 0 1.3853e-08 0.0007 1.3856e-08 0 1.445e-08 0 1.4453e-08 0.0007 1.4456e-08 0 1.465e-08 0 1.4653e-08 0.0007 1.4656e-08 0 1.525e-08 0 1.5253e-08 0.0007 1.5256e-08 0 1.545e-08 0 1.5453e-08 0.0007 1.5456e-08 0 1.605e-08 0 1.6053e-08 0.0007 1.6056e-08 0 1.625e-08 0 1.6253e-08 0.0007 1.6256e-08 0 1.685e-08 0 1.6853e-08 0.0007 1.6856e-08 0 1.705e-08 0 1.7053e-08 0.0007 1.7056e-08 0 1.765e-08 0 1.7653e-08 0.0007 1.7656e-08 0 1.785e-08 0 1.7853e-08 0.0007 1.7856e-08 0 1.845e-08 0 1.8453e-08 0.0007 1.8456e-08 0 1.865e-08 0 1.8653e-08 0.0007 1.8656e-08 0 1.925e-08 0 1.9253e-08 0.0007 1.9256e-08 0 1.945e-08 0 1.9453e-08 0.0007 1.9456e-08 0 2.005e-08 0 2.0053e-08 0.0007 2.0056e-08 0 2.025e-08 0 2.0253e-08 0.0007 2.0256e-08 0 2.085e-08 0 2.0853e-08 0.0007 2.0856e-08 0 2.105e-08 0 2.1053e-08 0.0007 2.1056e-08 0 2.165e-08 0 2.1653e-08 0.0007 2.1656e-08 0 2.185e-08 0 2.1853e-08 0.0007 2.1856e-08 0 2.245e-08 0 2.2453e-08 0.0007 2.2456e-08 0 2.265e-08 0 2.2653e-08 0.0007 2.2656e-08 0 2.325e-08 0 2.3253e-08 0.0007 2.3256e-08 0 2.345e-08 0 2.3453e-08 0.0007 2.3456e-08 0 2.405e-08 0 2.4053e-08 0.0007 2.4056e-08 0 2.425e-08 0 2.4253e-08 0.0007 2.4256e-08 0 2.485e-08 0 2.4853e-08 0.0007 2.4856e-08 0 2.505e-08 0 2.5053e-08 0.0007 2.5056e-08 0 2.565e-08 0 2.5653e-08 0.0007 2.5656e-08 0 2.585e-08 0 2.5853e-08 0.0007 2.5856e-08 0 2.645e-08 0 2.6453e-08 0.0007 2.6456e-08 0 2.665e-08 0 2.6653e-08 0.0007 2.6656e-08 0 2.725e-08 0 2.7253e-08 0.0007 2.7256e-08 0 2.745e-08 0 2.7453e-08 0.0007 2.7456e-08 0 2.805e-08 0 2.8053e-08 0.0007 2.8056e-08 0 2.825e-08 0 2.8253e-08 0.0007 2.8256e-08 0 2.885e-08 0 2.8853e-08 0.0007 2.8856e-08 0 2.905e-08 0 2.9053e-08 0.0007 2.9056e-08 0 2.965e-08 0 2.9653e-08 0.0007 2.9656e-08 0 2.985e-08 0 2.9853e-08 0.0007 2.9856e-08 0 3.045e-08 0 3.0453e-08 0.0007 3.0456e-08 0 3.065e-08 0 3.0653e-08 0.0007 3.0656e-08 0 3.125e-08 0 3.1253e-08 0.0007 3.1256e-08 0 3.145e-08 0 3.1453e-08 0.0007 3.1456e-08 0 3.205e-08 0 3.2053e-08 0.0007 3.2056e-08 0 3.225e-08 0 3.2253e-08 0.0007 3.2256e-08 0 3.285e-08 0 3.2853e-08 0.0007 3.2856e-08 0 3.305e-08 0 3.3053e-08 0.0007 3.3056e-08 0 3.365e-08 0 3.3653e-08 0.0007 3.3656e-08 0 3.385e-08 0 3.3853e-08 0.0007 3.3856e-08 0 3.445e-08 0 3.4453e-08 0.0007 3.4456e-08 0 3.465e-08 0 3.4653e-08 0.0007 3.4656e-08 0 3.525e-08 0 3.5253e-08 0.0007 3.5256e-08 0 3.545e-08 0 3.5453e-08 0.0007 3.5456e-08 0 3.605e-08 0 3.6053e-08 0.0007 3.6056e-08 0 3.625e-08 0 3.6253e-08 0.0007 3.6256e-08 0 3.685e-08 0 3.6853e-08 0.0007 3.6856e-08 0 3.705e-08 0 3.7053e-08 0.0007 3.7056e-08 0 3.765e-08 0 3.7653e-08 0.0007 3.7656e-08 0 3.785e-08 0 3.7853e-08 0.0007 3.7856e-08 0 3.845e-08 0 3.8453e-08 0.0007 3.8456e-08 0 3.865e-08 0 3.8653e-08 0.0007 3.8656e-08 0 3.925e-08 0 3.9253e-08 0.0007 3.9256e-08 0 3.945e-08 0 3.9453e-08 0.0007 3.9456e-08 0 4.005e-08 0 4.0053e-08 0.0007 4.0056e-08 0 4.025e-08 0 4.0253e-08 0.0007 4.0256e-08 0 4.085e-08 0 4.0853e-08 0.0007 4.0856e-08 0 4.105e-08 0 4.1053e-08 0.0007 4.1056e-08 0 4.165e-08 0 4.1653e-08 0.0007 4.1656e-08 0 4.185e-08 0 4.1853e-08 0.0007 4.1856e-08 0 4.245e-08 0 4.2453e-08 0.0007 4.2456e-08 0 4.265e-08 0 4.2653e-08 0.0007 4.2656e-08 0 4.325e-08 0 4.3253e-08 0.0007 4.3256e-08 0 4.345e-08 0 4.3453e-08 0.0007 4.3456e-08 0 4.405e-08 0 4.4053e-08 0.0007 4.4056e-08 0 4.425e-08 0 4.4253e-08 0.0007 4.4256e-08 0 4.485e-08 0 4.4853e-08 0.0007 4.4856e-08 0 4.505e-08 0 4.5053e-08 0.0007 4.5056e-08 0 4.565e-08 0 4.5653e-08 0.0007 4.5656e-08 0 4.585e-08 0 4.5853e-08 0.0007 4.5856e-08 0 4.645e-08 0 4.6453e-08 0.0007 4.6456e-08 0 4.665e-08 0 4.6653e-08 0.0007 4.6656e-08 0 4.725e-08 0 4.7253e-08 0.0007 4.7256e-08 0 4.745e-08 0 4.7453e-08 0.0007 4.7456e-08 0 4.805e-08 0 4.8053e-08 0.0007 4.8056e-08 0 4.825e-08 0 4.8253e-08 0.0007 4.8256e-08 0 4.885e-08 0 4.8853e-08 0.0007 4.8856e-08 0 4.905e-08 0 4.9053e-08 0.0007 4.9056e-08 0 4.965e-08 0 4.9653e-08 0.0007 4.9656e-08 0 4.985e-08 0 4.9853e-08 0.0007 4.9856e-08 0 5.045e-08 0 5.0453e-08 0.0007 5.0456e-08 0 5.065e-08 0 5.0653e-08 0.0007 5.0656e-08 0)
IA1|C 0 A1  PWL(0 0 6.6e-11 0 6.9e-11 0.0007 7.2e-11 0 2.66e-10 0 2.69e-10 0.0007 2.72e-10 0 4.66e-10 0 4.69e-10 0.0007 4.72e-10 0 6.66e-10 0 6.69e-10 0.0007 6.72e-10 0 1.666e-09 0 1.669e-09 0.0007 1.672e-09 0 1.866e-09 0 1.869e-09 0.0007 1.872e-09 0 2.066e-09 0 2.069e-09 0.0007 2.072e-09 0 2.266e-09 0 2.269e-09 0.0007 2.272e-09 0 3.266e-09 0 3.269e-09 0.0007 3.272e-09 0 3.466e-09 0 3.469e-09 0.0007 3.472e-09 0 3.666e-09 0 3.669e-09 0.0007 3.672e-09 0 3.866e-09 0 3.869e-09 0.0007 3.872e-09 0 4.866e-09 0 4.869e-09 0.0007 4.872e-09 0 5.066e-09 0 5.069e-09 0.0007 5.072e-09 0 5.266e-09 0 5.269e-09 0.0007 5.272e-09 0 5.466e-09 0 5.469e-09 0.0007 5.472e-09 0 6.466e-09 0 6.469e-09 0.0007 6.472e-09 0 6.666e-09 0 6.669e-09 0.0007 6.672e-09 0 6.866e-09 0 6.869e-09 0.0007 6.872e-09 0 7.066e-09 0 7.069e-09 0.0007 7.072e-09 0 8.066e-09 0 8.069e-09 0.0007 8.072e-09 0 8.266e-09 0 8.269e-09 0.0007 8.272e-09 0 8.466e-09 0 8.469e-09 0.0007 8.472e-09 0 8.666e-09 0 8.669e-09 0.0007 8.672e-09 0 9.666e-09 0 9.669e-09 0.0007 9.672e-09 0 9.866e-09 0 9.869e-09 0.0007 9.872e-09 0 1.0066e-08 0 1.0069e-08 0.0007 1.0072e-08 0 1.0266e-08 0 1.0269e-08 0.0007 1.0272e-08 0 1.1266e-08 0 1.1269e-08 0.0007 1.1272e-08 0 1.1466e-08 0 1.1469e-08 0.0007 1.1472e-08 0 1.1666e-08 0 1.1669e-08 0.0007 1.1672e-08 0 1.1866e-08 0 1.1869e-08 0.0007 1.1872e-08 0 1.2866e-08 0 1.2869e-08 0.0007 1.2872e-08 0 1.3066e-08 0 1.3069e-08 0.0007 1.3072e-08 0 1.3266e-08 0 1.3269e-08 0.0007 1.3272e-08 0 1.3466e-08 0 1.3469e-08 0.0007 1.3472e-08 0 1.4466e-08 0 1.4469e-08 0.0007 1.4472e-08 0 1.4666e-08 0 1.4669e-08 0.0007 1.4672e-08 0 1.4866e-08 0 1.4869e-08 0.0007 1.4872e-08 0 1.5066e-08 0 1.5069e-08 0.0007 1.5072e-08 0 1.6066e-08 0 1.6069e-08 0.0007 1.6072e-08 0 1.6266e-08 0 1.6269e-08 0.0007 1.6272e-08 0 1.6466e-08 0 1.6469e-08 0.0007 1.6472e-08 0 1.6666e-08 0 1.6669e-08 0.0007 1.6672e-08 0 1.7666e-08 0 1.7669e-08 0.0007 1.7672e-08 0 1.7866e-08 0 1.7869e-08 0.0007 1.7872e-08 0 1.8066e-08 0 1.8069e-08 0.0007 1.8072e-08 0 1.8266e-08 0 1.8269e-08 0.0007 1.8272e-08 0 1.9266e-08 0 1.9269e-08 0.0007 1.9272e-08 0 1.9466e-08 0 1.9469e-08 0.0007 1.9472e-08 0 1.9666e-08 0 1.9669e-08 0.0007 1.9672e-08 0 1.9866e-08 0 1.9869e-08 0.0007 1.9872e-08 0 2.0866e-08 0 2.0869e-08 0.0007 2.0872e-08 0 2.1066e-08 0 2.1069e-08 0.0007 2.1072e-08 0 2.1266e-08 0 2.1269e-08 0.0007 2.1272e-08 0 2.1466e-08 0 2.1469e-08 0.0007 2.1472e-08 0 2.2466e-08 0 2.2469e-08 0.0007 2.2472e-08 0 2.2666e-08 0 2.2669e-08 0.0007 2.2672e-08 0 2.2866e-08 0 2.2869e-08 0.0007 2.2872e-08 0 2.3066e-08 0 2.3069e-08 0.0007 2.3072e-08 0 2.4066e-08 0 2.4069e-08 0.0007 2.4072e-08 0 2.4266e-08 0 2.4269e-08 0.0007 2.4272e-08 0 2.4466e-08 0 2.4469e-08 0.0007 2.4472e-08 0 2.4666e-08 0 2.4669e-08 0.0007 2.4672e-08 0 2.5666e-08 0 2.5669e-08 0.0007 2.5672e-08 0 2.5866e-08 0 2.5869e-08 0.0007 2.5872e-08 0 2.6066e-08 0 2.6069e-08 0.0007 2.6072e-08 0 2.6266e-08 0 2.6269e-08 0.0007 2.6272e-08 0 2.7266e-08 0 2.7269e-08 0.0007 2.7272e-08 0 2.7466e-08 0 2.7469e-08 0.0007 2.7472e-08 0 2.7666e-08 0 2.7669e-08 0.0007 2.7672e-08 0 2.7866e-08 0 2.7869e-08 0.0007 2.7872e-08 0 2.8866e-08 0 2.8869e-08 0.0007 2.8872e-08 0 2.9066e-08 0 2.9069e-08 0.0007 2.9072e-08 0 2.9266e-08 0 2.9269e-08 0.0007 2.9272e-08 0 2.9466e-08 0 2.9469e-08 0.0007 2.9472e-08 0 3.0466e-08 0 3.0469e-08 0.0007 3.0472e-08 0 3.0666e-08 0 3.0669e-08 0.0007 3.0672e-08 0 3.0866e-08 0 3.0869e-08 0.0007 3.0872e-08 0 3.1066e-08 0 3.1069e-08 0.0007 3.1072e-08 0 3.2066e-08 0 3.2069e-08 0.0007 3.2072e-08 0 3.2266e-08 0 3.2269e-08 0.0007 3.2272e-08 0 3.2466e-08 0 3.2469e-08 0.0007 3.2472e-08 0 3.2666e-08 0 3.2669e-08 0.0007 3.2672e-08 0 3.3666e-08 0 3.3669e-08 0.0007 3.3672e-08 0 3.3866e-08 0 3.3869e-08 0.0007 3.3872e-08 0 3.4066e-08 0 3.4069e-08 0.0007 3.4072e-08 0 3.4266e-08 0 3.4269e-08 0.0007 3.4272e-08 0 3.5266e-08 0 3.5269e-08 0.0007 3.5272e-08 0 3.5466e-08 0 3.5469e-08 0.0007 3.5472e-08 0 3.5666e-08 0 3.5669e-08 0.0007 3.5672e-08 0 3.5866e-08 0 3.5869e-08 0.0007 3.5872e-08 0 3.6866e-08 0 3.6869e-08 0.0007 3.6872e-08 0 3.7066e-08 0 3.7069e-08 0.0007 3.7072e-08 0 3.7266e-08 0 3.7269e-08 0.0007 3.7272e-08 0 3.7466e-08 0 3.7469e-08 0.0007 3.7472e-08 0 3.8466e-08 0 3.8469e-08 0.0007 3.8472e-08 0 3.8666e-08 0 3.8669e-08 0.0007 3.8672e-08 0 3.8866e-08 0 3.8869e-08 0.0007 3.8872e-08 0 3.9066e-08 0 3.9069e-08 0.0007 3.9072e-08 0 4.0066e-08 0 4.0069e-08 0.0007 4.0072e-08 0 4.0266e-08 0 4.0269e-08 0.0007 4.0272e-08 0 4.0466e-08 0 4.0469e-08 0.0007 4.0472e-08 0 4.0666e-08 0 4.0669e-08 0.0007 4.0672e-08 0 4.1666e-08 0 4.1669e-08 0.0007 4.1672e-08 0 4.1866e-08 0 4.1869e-08 0.0007 4.1872e-08 0 4.2066e-08 0 4.2069e-08 0.0007 4.2072e-08 0 4.2266e-08 0 4.2269e-08 0.0007 4.2272e-08 0 4.3266e-08 0 4.3269e-08 0.0007 4.3272e-08 0 4.3466e-08 0 4.3469e-08 0.0007 4.3472e-08 0 4.3666e-08 0 4.3669e-08 0.0007 4.3672e-08 0 4.3866e-08 0 4.3869e-08 0.0007 4.3872e-08 0 4.4866e-08 0 4.4869e-08 0.0007 4.4872e-08 0 4.5066e-08 0 4.5069e-08 0.0007 4.5072e-08 0 4.5266e-08 0 4.5269e-08 0.0007 4.5272e-08 0 4.5466e-08 0 4.5469e-08 0.0007 4.5472e-08 0 4.6466e-08 0 4.6469e-08 0.0007 4.6472e-08 0 4.6666e-08 0 4.6669e-08 0.0007 4.6672e-08 0 4.6866e-08 0 4.6869e-08 0.0007 4.6872e-08 0 4.7066e-08 0 4.7069e-08 0.0007 4.7072e-08 0 4.8066e-08 0 4.8069e-08 0.0007 4.8072e-08 0 4.8266e-08 0 4.8269e-08 0.0007 4.8272e-08 0 4.8466e-08 0 4.8469e-08 0.0007 4.8472e-08 0 4.8666e-08 0 4.8669e-08 0.0007 4.8672e-08 0 4.9666e-08 0 4.9669e-08 0.0007 4.9672e-08 0 4.9866e-08 0 4.9869e-08 0.0007 4.9872e-08 0 5.0066e-08 0 5.0069e-08 0.0007 5.0072e-08 0 5.0266e-08 0 5.0269e-08 0.0007 5.0272e-08 0)
IB1|D 0 B1  PWL(0 0 8.2e-11 0 8.5e-11 0.0007 8.8e-11 0 2.82e-10 0 2.85e-10 0.0007 2.88e-10 0 4.82e-10 0 4.85e-10 0.0007 4.88e-10 0 6.82e-10 0 6.85e-10 0.0007 6.88e-10 0 8.82e-10 0 8.85e-10 0.0007 8.88e-10 0 1.082e-09 0 1.085e-09 0.0007 1.088e-09 0 1.282e-09 0 1.285e-09 0.0007 1.288e-09 0 1.482e-09 0 1.485e-09 0.0007 1.488e-09 0 3.282e-09 0 3.285e-09 0.0007 3.288e-09 0 3.482e-09 0 3.485e-09 0.0007 3.488e-09 0 3.682e-09 0 3.685e-09 0.0007 3.688e-09 0 3.882e-09 0 3.885e-09 0.0007 3.888e-09 0 4.082e-09 0 4.085e-09 0.0007 4.088e-09 0 4.282e-09 0 4.285e-09 0.0007 4.288e-09 0 4.482e-09 0 4.485e-09 0.0007 4.488e-09 0 4.682e-09 0 4.685e-09 0.0007 4.688e-09 0 6.482e-09 0 6.485e-09 0.0007 6.488e-09 0 6.682e-09 0 6.685e-09 0.0007 6.688e-09 0 6.882e-09 0 6.885e-09 0.0007 6.888e-09 0 7.082e-09 0 7.085e-09 0.0007 7.088e-09 0 7.282e-09 0 7.285e-09 0.0007 7.288e-09 0 7.482e-09 0 7.485e-09 0.0007 7.488e-09 0 7.682e-09 0 7.685e-09 0.0007 7.688e-09 0 7.882e-09 0 7.885e-09 0.0007 7.888e-09 0 9.682e-09 0 9.685e-09 0.0007 9.688e-09 0 9.882e-09 0 9.885e-09 0.0007 9.888e-09 0 1.0082e-08 0 1.0085e-08 0.0007 1.0088e-08 0 1.0282e-08 0 1.0285e-08 0.0007 1.0288e-08 0 1.0482e-08 0 1.0485e-08 0.0007 1.0488e-08 0 1.0682e-08 0 1.0685e-08 0.0007 1.0688e-08 0 1.0882e-08 0 1.0885e-08 0.0007 1.0888e-08 0 1.1082e-08 0 1.1085e-08 0.0007 1.1088e-08 0 1.2882e-08 0 1.2885e-08 0.0007 1.2888e-08 0 1.3082e-08 0 1.3085e-08 0.0007 1.3088e-08 0 1.3282e-08 0 1.3285e-08 0.0007 1.3288e-08 0 1.3482e-08 0 1.3485e-08 0.0007 1.3488e-08 0 1.3682e-08 0 1.3685e-08 0.0007 1.3688e-08 0 1.3882e-08 0 1.3885e-08 0.0007 1.3888e-08 0 1.4082e-08 0 1.4085e-08 0.0007 1.4088e-08 0 1.4282e-08 0 1.4285e-08 0.0007 1.4288e-08 0 1.6082e-08 0 1.6085e-08 0.0007 1.6088e-08 0 1.6282e-08 0 1.6285e-08 0.0007 1.6288e-08 0 1.6482e-08 0 1.6485e-08 0.0007 1.6488e-08 0 1.6682e-08 0 1.6685e-08 0.0007 1.6688e-08 0 1.6882e-08 0 1.6885e-08 0.0007 1.6888e-08 0 1.7082e-08 0 1.7085e-08 0.0007 1.7088e-08 0 1.7282e-08 0 1.7285e-08 0.0007 1.7288e-08 0 1.7482e-08 0 1.7485e-08 0.0007 1.7488e-08 0 1.9282e-08 0 1.9285e-08 0.0007 1.9288e-08 0 1.9482e-08 0 1.9485e-08 0.0007 1.9488e-08 0 1.9682e-08 0 1.9685e-08 0.0007 1.9688e-08 0 1.9882e-08 0 1.9885e-08 0.0007 1.9888e-08 0 2.0082e-08 0 2.0085e-08 0.0007 2.0088e-08 0 2.0282e-08 0 2.0285e-08 0.0007 2.0288e-08 0 2.0482e-08 0 2.0485e-08 0.0007 2.0488e-08 0 2.0682e-08 0 2.0685e-08 0.0007 2.0688e-08 0 2.2482e-08 0 2.2485e-08 0.0007 2.2488e-08 0 2.2682e-08 0 2.2685e-08 0.0007 2.2688e-08 0 2.2882e-08 0 2.2885e-08 0.0007 2.2888e-08 0 2.3082e-08 0 2.3085e-08 0.0007 2.3088e-08 0 2.3282e-08 0 2.3285e-08 0.0007 2.3288e-08 0 2.3482e-08 0 2.3485e-08 0.0007 2.3488e-08 0 2.3682e-08 0 2.3685e-08 0.0007 2.3688e-08 0 2.3882e-08 0 2.3885e-08 0.0007 2.3888e-08 0 2.5682e-08 0 2.5685e-08 0.0007 2.5688e-08 0 2.5882e-08 0 2.5885e-08 0.0007 2.5888e-08 0 2.6082e-08 0 2.6085e-08 0.0007 2.6088e-08 0 2.6282e-08 0 2.6285e-08 0.0007 2.6288e-08 0 2.6482e-08 0 2.6485e-08 0.0007 2.6488e-08 0 2.6682e-08 0 2.6685e-08 0.0007 2.6688e-08 0 2.6882e-08 0 2.6885e-08 0.0007 2.6888e-08 0 2.7082e-08 0 2.7085e-08 0.0007 2.7088e-08 0 2.8882e-08 0 2.8885e-08 0.0007 2.8888e-08 0 2.9082e-08 0 2.9085e-08 0.0007 2.9088e-08 0 2.9282e-08 0 2.9285e-08 0.0007 2.9288e-08 0 2.9482e-08 0 2.9485e-08 0.0007 2.9488e-08 0 2.9682e-08 0 2.9685e-08 0.0007 2.9688e-08 0 2.9882e-08 0 2.9885e-08 0.0007 2.9888e-08 0 3.0082e-08 0 3.0085e-08 0.0007 3.0088e-08 0 3.0282e-08 0 3.0285e-08 0.0007 3.0288e-08 0 3.2082e-08 0 3.2085e-08 0.0007 3.2088e-08 0 3.2282e-08 0 3.2285e-08 0.0007 3.2288e-08 0 3.2482e-08 0 3.2485e-08 0.0007 3.2488e-08 0 3.2682e-08 0 3.2685e-08 0.0007 3.2688e-08 0 3.2882e-08 0 3.2885e-08 0.0007 3.2888e-08 0 3.3082e-08 0 3.3085e-08 0.0007 3.3088e-08 0 3.3282e-08 0 3.3285e-08 0.0007 3.3288e-08 0 3.3482e-08 0 3.3485e-08 0.0007 3.3488e-08 0 3.5282e-08 0 3.5285e-08 0.0007 3.5288e-08 0 3.5482e-08 0 3.5485e-08 0.0007 3.5488e-08 0 3.5682e-08 0 3.5685e-08 0.0007 3.5688e-08 0 3.5882e-08 0 3.5885e-08 0.0007 3.5888e-08 0 3.6082e-08 0 3.6085e-08 0.0007 3.6088e-08 0 3.6282e-08 0 3.6285e-08 0.0007 3.6288e-08 0 3.6482e-08 0 3.6485e-08 0.0007 3.6488e-08 0 3.6682e-08 0 3.6685e-08 0.0007 3.6688e-08 0 3.8482e-08 0 3.8485e-08 0.0007 3.8488e-08 0 3.8682e-08 0 3.8685e-08 0.0007 3.8688e-08 0 3.8882e-08 0 3.8885e-08 0.0007 3.8888e-08 0 3.9082e-08 0 3.9085e-08 0.0007 3.9088e-08 0 3.9282e-08 0 3.9285e-08 0.0007 3.9288e-08 0 3.9482e-08 0 3.9485e-08 0.0007 3.9488e-08 0 3.9682e-08 0 3.9685e-08 0.0007 3.9688e-08 0 3.9882e-08 0 3.9885e-08 0.0007 3.9888e-08 0 4.1682e-08 0 4.1685e-08 0.0007 4.1688e-08 0 4.1882e-08 0 4.1885e-08 0.0007 4.1888e-08 0 4.2082e-08 0 4.2085e-08 0.0007 4.2088e-08 0 4.2282e-08 0 4.2285e-08 0.0007 4.2288e-08 0 4.2482e-08 0 4.2485e-08 0.0007 4.2488e-08 0 4.2682e-08 0 4.2685e-08 0.0007 4.2688e-08 0 4.2882e-08 0 4.2885e-08 0.0007 4.2888e-08 0 4.3082e-08 0 4.3085e-08 0.0007 4.3088e-08 0 4.4882e-08 0 4.4885e-08 0.0007 4.4888e-08 0 4.5082e-08 0 4.5085e-08 0.0007 4.5088e-08 0 4.5282e-08 0 4.5285e-08 0.0007 4.5288e-08 0 4.5482e-08 0 4.5485e-08 0.0007 4.5488e-08 0 4.5682e-08 0 4.5685e-08 0.0007 4.5688e-08 0 4.5882e-08 0 4.5885e-08 0.0007 4.5888e-08 0 4.6082e-08 0 4.6085e-08 0.0007 4.6088e-08 0 4.6282e-08 0 4.6285e-08 0.0007 4.6288e-08 0 4.8082e-08 0 4.8085e-08 0.0007 4.8088e-08 0 4.8282e-08 0 4.8285e-08 0.0007 4.8288e-08 0 4.8482e-08 0 4.8485e-08 0.0007 4.8488e-08 0 4.8682e-08 0 4.8685e-08 0.0007 4.8688e-08 0 4.8882e-08 0 4.8885e-08 0.0007 4.8888e-08 0 4.9082e-08 0 4.9085e-08 0.0007 4.9088e-08 0 4.9282e-08 0 4.9285e-08 0.0007 4.9288e-08 0 4.9482e-08 0 4.9485e-08 0.0007 4.9488e-08 0)
IA2|E 0 A2  PWL(0 0 9.8e-11 0 1.01e-10 0.0007 1.04e-10 0 2.98e-10 0 3.01e-10 0.0007 3.04e-10 0 4.98e-10 0 5.01e-10 0.0007 5.04e-10 0 6.98e-10 0 7.01e-10 0.0007 7.04e-10 0 8.98e-10 0 9.01e-10 0.0007 9.04e-10 0 1.098e-09 0 1.101e-09 0.0007 1.104e-09 0 1.298e-09 0 1.301e-09 0.0007 1.304e-09 0 1.498e-09 0 1.501e-09 0.0007 1.504e-09 0 1.698e-09 0 1.701e-09 0.0007 1.704e-09 0 1.898e-09 0 1.901e-09 0.0007 1.904e-09 0 2.098e-09 0 2.101e-09 0.0007 2.104e-09 0 2.298e-09 0 2.301e-09 0.0007 2.304e-09 0 2.498e-09 0 2.501e-09 0.0007 2.504e-09 0 2.698e-09 0 2.701e-09 0.0007 2.704e-09 0 2.898e-09 0 2.901e-09 0.0007 2.904e-09 0 3.098e-09 0 3.101e-09 0.0007 3.104e-09 0 6.498e-09 0 6.501e-09 0.0007 6.504e-09 0 6.698e-09 0 6.701e-09 0.0007 6.704e-09 0 6.898e-09 0 6.901e-09 0.0007 6.904e-09 0 7.098e-09 0 7.101e-09 0.0007 7.104e-09 0 7.298e-09 0 7.301e-09 0.0007 7.304e-09 0 7.498e-09 0 7.501e-09 0.0007 7.504e-09 0 7.698e-09 0 7.701e-09 0.0007 7.704e-09 0 7.898e-09 0 7.901e-09 0.0007 7.904e-09 0 8.098e-09 0 8.101e-09 0.0007 8.104e-09 0 8.298e-09 0 8.301e-09 0.0007 8.304e-09 0 8.498e-09 0 8.501e-09 0.0007 8.504e-09 0 8.698e-09 0 8.701e-09 0.0007 8.704e-09 0 8.898e-09 0 8.901e-09 0.0007 8.904e-09 0 9.098e-09 0 9.101e-09 0.0007 9.104e-09 0 9.298e-09 0 9.301e-09 0.0007 9.304e-09 0 9.498e-09 0 9.501e-09 0.0007 9.504e-09 0 1.2898e-08 0 1.2901e-08 0.0007 1.2904e-08 0 1.3098e-08 0 1.3101e-08 0.0007 1.3104e-08 0 1.3298e-08 0 1.3301e-08 0.0007 1.3304e-08 0 1.3498e-08 0 1.3501e-08 0.0007 1.3504e-08 0 1.3698e-08 0 1.3701e-08 0.0007 1.3704e-08 0 1.3898e-08 0 1.3901e-08 0.0007 1.3904e-08 0 1.4098e-08 0 1.4101e-08 0.0007 1.4104e-08 0 1.4298e-08 0 1.4301e-08 0.0007 1.4304e-08 0 1.4498e-08 0 1.4501e-08 0.0007 1.4504e-08 0 1.4698e-08 0 1.4701e-08 0.0007 1.4704e-08 0 1.4898e-08 0 1.4901e-08 0.0007 1.4904e-08 0 1.5098e-08 0 1.5101e-08 0.0007 1.5104e-08 0 1.5298e-08 0 1.5301e-08 0.0007 1.5304e-08 0 1.5498e-08 0 1.5501e-08 0.0007 1.5504e-08 0 1.5698e-08 0 1.5701e-08 0.0007 1.5704e-08 0 1.5898e-08 0 1.5901e-08 0.0007 1.5904e-08 0 1.9298e-08 0 1.9301e-08 0.0007 1.9304e-08 0 1.9498e-08 0 1.9501e-08 0.0007 1.9504e-08 0 1.9698e-08 0 1.9701e-08 0.0007 1.9704e-08 0 1.9898e-08 0 1.9901e-08 0.0007 1.9904e-08 0 2.0098e-08 0 2.0101e-08 0.0007 2.0104e-08 0 2.0298e-08 0 2.0301e-08 0.0007 2.0304e-08 0 2.0498e-08 0 2.0501e-08 0.0007 2.0504e-08 0 2.0698e-08 0 2.0701e-08 0.0007 2.0704e-08 0 2.0898e-08 0 2.0901e-08 0.0007 2.0904e-08 0 2.1098e-08 0 2.1101e-08 0.0007 2.1104e-08 0 2.1298e-08 0 2.1301e-08 0.0007 2.1304e-08 0 2.1498e-08 0 2.1501e-08 0.0007 2.1504e-08 0 2.1698e-08 0 2.1701e-08 0.0007 2.1704e-08 0 2.1898e-08 0 2.1901e-08 0.0007 2.1904e-08 0 2.2098e-08 0 2.2101e-08 0.0007 2.2104e-08 0 2.2298e-08 0 2.2301e-08 0.0007 2.2304e-08 0 2.5698e-08 0 2.5701e-08 0.0007 2.5704e-08 0 2.5898e-08 0 2.5901e-08 0.0007 2.5904e-08 0 2.6098e-08 0 2.6101e-08 0.0007 2.6104e-08 0 2.6298e-08 0 2.6301e-08 0.0007 2.6304e-08 0 2.6498e-08 0 2.6501e-08 0.0007 2.6504e-08 0 2.6698e-08 0 2.6701e-08 0.0007 2.6704e-08 0 2.6898e-08 0 2.6901e-08 0.0007 2.6904e-08 0 2.7098e-08 0 2.7101e-08 0.0007 2.7104e-08 0 2.7298e-08 0 2.7301e-08 0.0007 2.7304e-08 0 2.7498e-08 0 2.7501e-08 0.0007 2.7504e-08 0 2.7698e-08 0 2.7701e-08 0.0007 2.7704e-08 0 2.7898e-08 0 2.7901e-08 0.0007 2.7904e-08 0 2.8098e-08 0 2.8101e-08 0.0007 2.8104e-08 0 2.8298e-08 0 2.8301e-08 0.0007 2.8304e-08 0 2.8498e-08 0 2.8501e-08 0.0007 2.8504e-08 0 2.8698e-08 0 2.8701e-08 0.0007 2.8704e-08 0 3.2098e-08 0 3.2101e-08 0.0007 3.2104e-08 0 3.2298e-08 0 3.2301e-08 0.0007 3.2304e-08 0 3.2498e-08 0 3.2501e-08 0.0007 3.2504e-08 0 3.2698e-08 0 3.2701e-08 0.0007 3.2704e-08 0 3.2898e-08 0 3.2901e-08 0.0007 3.2904e-08 0 3.3098e-08 0 3.3101e-08 0.0007 3.3104e-08 0 3.3298e-08 0 3.3301e-08 0.0007 3.3304e-08 0 3.3498e-08 0 3.3501e-08 0.0007 3.3504e-08 0 3.3698e-08 0 3.3701e-08 0.0007 3.3704e-08 0 3.3898e-08 0 3.3901e-08 0.0007 3.3904e-08 0 3.4098e-08 0 3.4101e-08 0.0007 3.4104e-08 0 3.4298e-08 0 3.4301e-08 0.0007 3.4304e-08 0 3.4498e-08 0 3.4501e-08 0.0007 3.4504e-08 0 3.4698e-08 0 3.4701e-08 0.0007 3.4704e-08 0 3.4898e-08 0 3.4901e-08 0.0007 3.4904e-08 0 3.5098e-08 0 3.5101e-08 0.0007 3.5104e-08 0 3.8498e-08 0 3.8501e-08 0.0007 3.8504e-08 0 3.8698e-08 0 3.8701e-08 0.0007 3.8704e-08 0 3.8898e-08 0 3.8901e-08 0.0007 3.8904e-08 0 3.9098e-08 0 3.9101e-08 0.0007 3.9104e-08 0 3.9298e-08 0 3.9301e-08 0.0007 3.9304e-08 0 3.9498e-08 0 3.9501e-08 0.0007 3.9504e-08 0 3.9698e-08 0 3.9701e-08 0.0007 3.9704e-08 0 3.9898e-08 0 3.9901e-08 0.0007 3.9904e-08 0 4.0098e-08 0 4.0101e-08 0.0007 4.0104e-08 0 4.0298e-08 0 4.0301e-08 0.0007 4.0304e-08 0 4.0498e-08 0 4.0501e-08 0.0007 4.0504e-08 0 4.0698e-08 0 4.0701e-08 0.0007 4.0704e-08 0 4.0898e-08 0 4.0901e-08 0.0007 4.0904e-08 0 4.1098e-08 0 4.1101e-08 0.0007 4.1104e-08 0 4.1298e-08 0 4.1301e-08 0.0007 4.1304e-08 0 4.1498e-08 0 4.1501e-08 0.0007 4.1504e-08 0 4.4898e-08 0 4.4901e-08 0.0007 4.4904e-08 0 4.5098e-08 0 4.5101e-08 0.0007 4.5104e-08 0 4.5298e-08 0 4.5301e-08 0.0007 4.5304e-08 0 4.5498e-08 0 4.5501e-08 0.0007 4.5504e-08 0 4.5698e-08 0 4.5701e-08 0.0007 4.5704e-08 0 4.5898e-08 0 4.5901e-08 0.0007 4.5904e-08 0 4.6098e-08 0 4.6101e-08 0.0007 4.6104e-08 0 4.6298e-08 0 4.6301e-08 0.0007 4.6304e-08 0 4.6498e-08 0 4.6501e-08 0.0007 4.6504e-08 0 4.6698e-08 0 4.6701e-08 0.0007 4.6704e-08 0 4.6898e-08 0 4.6901e-08 0.0007 4.6904e-08 0 4.7098e-08 0 4.7101e-08 0.0007 4.7104e-08 0 4.7298e-08 0 4.7301e-08 0.0007 4.7304e-08 0 4.7498e-08 0 4.7501e-08 0.0007 4.7504e-08 0 4.7698e-08 0 4.7701e-08 0.0007 4.7704e-08 0 4.7898e-08 0 4.7901e-08 0.0007 4.7904e-08 0)