*
.PARAM PHI0=2.067833848e-15
.PARAM B0=1
.PARAM IC0=0.0001
.PARAM ICRS=0.0006859904418
.PARAM B0RS=6.859904418
.PARAM RSHEET=2
.PARAM LSHEET=1.13e-12
.PARAM LP=2e-13
.PARAM LPTL=2e-12
.PARAM IC=2.5
.PARAM LB=2e-12
.PARAM BIASCOEF=0.7
.PARAM DCBIAS=1
.PARAM TCLOCK=1.8e-10
.PARAM OS=4.5e-12
.PARAM STEP=0.08
.MODEL JJMIT JJ(RTYPE=1, VG=2.8MV, CAP=0.07PF, R0=160, RN=16, ICRIT=0.1MA)
.MODEL JJMIT JJ(RTYPE=1, VG=2.8MV, CAP=0.07PF, R0=160, RN=16, ICRIT=0.1MA)
.TRAN 1E-12 52000E-12/200*180
R_S0 S0 0  1
R_S1 S1 0  1
R_S2 S2 0  1
R_S3 S3 0  1
R_S4 S4 0  1
IA0|A 0 A0  PWL(0 0 2.103e-10 0 2.133e-10 0.0007 2.163e-10 0 5.703e-10 0 5.733e-10 0.0007 5.763e-10 0 9.303e-10 0 9.333e-10 0.0007 9.363e-10 0 1.2903e-09 0 1.2933e-09 0.0007 1.2963e-09 0 1.6503e-09 0 1.6533e-09 0.0007 1.6563e-09 0 2.0103e-09 0 2.0133e-09 0.0007 2.0163e-09 0 2.3703e-09 0 2.3733e-09 0.0007 2.3763e-09 0 2.7303e-09 0 2.7333e-09 0.0007 2.7363e-09 0 3.0903e-09 0 3.0933e-09 0.0007 3.0963e-09 0 3.4503e-09 0 3.4533e-09 0.0007 3.4563e-09 0 3.8103e-09 0 3.8133e-09 0.0007 3.8163e-09 0 4.1703e-09 0 4.1733e-09 0.0007 4.1763e-09 0 4.5303e-09 0 4.5333e-09 0.0007 4.5363e-09 0 4.8903e-09 0 4.8933e-09 0.0007 4.8963e-09 0 5.2503e-09 0 5.2533e-09 0.0007 5.2563e-09 0 5.6103e-09 0 5.6133e-09 0.0007 5.6163e-09 0 5.9703e-09 0 5.9733e-09 0.0007 5.9763e-09 0 6.3303e-09 0 6.3333e-09 0.0007 6.3363e-09 0 6.6903e-09 0 6.6933e-09 0.0007 6.6963e-09 0 7.0503e-09 0 7.0533e-09 0.0007 7.0563e-09 0 7.4103e-09 0 7.4133e-09 0.0007 7.4163e-09 0 7.7703e-09 0 7.7733e-09 0.0007 7.7763e-09 0 8.1303e-09 0 8.1333e-09 0.0007 8.1363e-09 0 8.4903e-09 0 8.4933e-09 0.0007 8.4963e-09 0 8.8503e-09 0 8.8533e-09 0.0007 8.8563e-09 0 9.2103e-09 0 9.2133e-09 0.0007 9.2163e-09 0 9.5703e-09 0 9.5733e-09 0.0007 9.5763e-09 0 9.9303e-09 0 9.9333e-09 0.0007 9.9363e-09 0 1.02903e-08 0 1.02933e-08 0.0007 1.02963e-08 0 1.06503e-08 0 1.06533e-08 0.0007 1.06563e-08 0 1.10103e-08 0 1.10133e-08 0.0007 1.10163e-08 0 1.13703e-08 0 1.13733e-08 0.0007 1.13763e-08 0 1.17303e-08 0 1.17333e-08 0.0007 1.17363e-08 0 1.20903e-08 0 1.20933e-08 0.0007 1.20963e-08 0 1.24503e-08 0 1.24533e-08 0.0007 1.24563e-08 0 1.28103e-08 0 1.28133e-08 0.0007 1.28163e-08 0 1.31703e-08 0 1.31733e-08 0.0007 1.31763e-08 0 1.35303e-08 0 1.35333e-08 0.0007 1.35363e-08 0 1.38903e-08 0 1.38933e-08 0.0007 1.38963e-08 0 1.42503e-08 0 1.42533e-08 0.0007 1.42563e-08 0 1.46103e-08 0 1.46133e-08 0.0007 1.46163e-08 0 1.49703e-08 0 1.49733e-08 0.0007 1.49763e-08 0 1.53303e-08 0 1.53333e-08 0.0007 1.53363e-08 0 1.56903e-08 0 1.56933e-08 0.0007 1.56963e-08 0 1.60503e-08 0 1.60533e-08 0.0007 1.60563e-08 0 1.64103e-08 0 1.64133e-08 0.0007 1.64163e-08 0 1.67703e-08 0 1.67733e-08 0.0007 1.67763e-08 0 1.71303e-08 0 1.71333e-08 0.0007 1.71363e-08 0 1.74903e-08 0 1.74933e-08 0.0007 1.74963e-08 0 1.78503e-08 0 1.78533e-08 0.0007 1.78563e-08 0 1.82103e-08 0 1.82133e-08 0.0007 1.82163e-08 0 1.85703e-08 0 1.85733e-08 0.0007 1.85763e-08 0 1.89303e-08 0 1.89333e-08 0.0007 1.89363e-08 0 1.92903e-08 0 1.92933e-08 0.0007 1.92963e-08 0 1.96503e-08 0 1.96533e-08 0.0007 1.96563e-08 0 2.00103e-08 0 2.00133e-08 0.0007 2.00163e-08 0 2.03703e-08 0 2.03733e-08 0.0007 2.03763e-08 0 2.07303e-08 0 2.07333e-08 0.0007 2.07363e-08 0 2.10903e-08 0 2.10933e-08 0.0007 2.10963e-08 0 2.14503e-08 0 2.14533e-08 0.0007 2.14563e-08 0 2.18103e-08 0 2.18133e-08 0.0007 2.18163e-08 0 2.21703e-08 0 2.21733e-08 0.0007 2.21763e-08 0 2.25303e-08 0 2.25333e-08 0.0007 2.25363e-08 0 2.28903e-08 0 2.28933e-08 0.0007 2.28963e-08 0 2.32503e-08 0 2.32533e-08 0.0007 2.32563e-08 0 2.36103e-08 0 2.36133e-08 0.0007 2.36163e-08 0 2.39703e-08 0 2.39733e-08 0.0007 2.39763e-08 0 2.43303e-08 0 2.43333e-08 0.0007 2.43363e-08 0 2.46903e-08 0 2.46933e-08 0.0007 2.46963e-08 0 2.50503e-08 0 2.50533e-08 0.0007 2.50563e-08 0 2.54103e-08 0 2.54133e-08 0.0007 2.54163e-08 0 2.57703e-08 0 2.57733e-08 0.0007 2.57763e-08 0 2.61303e-08 0 2.61333e-08 0.0007 2.61363e-08 0 2.64903e-08 0 2.64933e-08 0.0007 2.64963e-08 0 2.68503e-08 0 2.68533e-08 0.0007 2.68563e-08 0 2.72103e-08 0 2.72133e-08 0.0007 2.72163e-08 0 2.75703e-08 0 2.75733e-08 0.0007 2.75763e-08 0 2.79303e-08 0 2.79333e-08 0.0007 2.79363e-08 0 2.82903e-08 0 2.82933e-08 0.0007 2.82963e-08 0 2.86503e-08 0 2.86533e-08 0.0007 2.86563e-08 0 2.90103e-08 0 2.90133e-08 0.0007 2.90163e-08 0 2.93703e-08 0 2.93733e-08 0.0007 2.93763e-08 0 2.97303e-08 0 2.97333e-08 0.0007 2.97363e-08 0 3.00903e-08 0 3.00933e-08 0.0007 3.00963e-08 0 3.04503e-08 0 3.04533e-08 0.0007 3.04563e-08 0 3.08103e-08 0 3.08133e-08 0.0007 3.08163e-08 0 3.11703e-08 0 3.11733e-08 0.0007 3.11763e-08 0 3.15303e-08 0 3.15333e-08 0.0007 3.15363e-08 0 3.18903e-08 0 3.18933e-08 0.0007 3.18963e-08 0 3.22503e-08 0 3.22533e-08 0.0007 3.22563e-08 0 3.26103e-08 0 3.26133e-08 0.0007 3.26163e-08 0 3.29703e-08 0 3.29733e-08 0.0007 3.29763e-08 0 3.33303e-08 0 3.33333e-08 0.0007 3.33363e-08 0 3.36903e-08 0 3.36933e-08 0.0007 3.36963e-08 0 3.40503e-08 0 3.40533e-08 0.0007 3.40563e-08 0 3.44103e-08 0 3.44133e-08 0.0007 3.44163e-08 0 3.47703e-08 0 3.47733e-08 0.0007 3.47763e-08 0 3.51303e-08 0 3.51333e-08 0.0007 3.51363e-08 0 3.54903e-08 0 3.54933e-08 0.0007 3.54963e-08 0 3.58503e-08 0 3.58533e-08 0.0007 3.58563e-08 0 3.62103e-08 0 3.62133e-08 0.0007 3.62163e-08 0 3.65703e-08 0 3.65733e-08 0.0007 3.65763e-08 0 3.69303e-08 0 3.69333e-08 0.0007 3.69363e-08 0 3.72903e-08 0 3.72933e-08 0.0007 3.72963e-08 0 3.76503e-08 0 3.76533e-08 0.0007 3.76563e-08 0 3.80103e-08 0 3.80133e-08 0.0007 3.80163e-08 0 3.83703e-08 0 3.83733e-08 0.0007 3.83763e-08 0 3.87303e-08 0 3.87333e-08 0.0007 3.87363e-08 0 3.90903e-08 0 3.90933e-08 0.0007 3.90963e-08 0 3.94503e-08 0 3.94533e-08 0.0007 3.94563e-08 0 3.98103e-08 0 3.98133e-08 0.0007 3.98163e-08 0 4.01703e-08 0 4.01733e-08 0.0007 4.01763e-08 0 4.05303e-08 0 4.05333e-08 0.0007 4.05363e-08 0 4.08903e-08 0 4.08933e-08 0.0007 4.08963e-08 0 4.12503e-08 0 4.12533e-08 0.0007 4.12563e-08 0 4.16103e-08 0 4.16133e-08 0.0007 4.16163e-08 0 4.19703e-08 0 4.19733e-08 0.0007 4.19763e-08 0 4.23303e-08 0 4.23333e-08 0.0007 4.23363e-08 0 4.26903e-08 0 4.26933e-08 0.0007 4.26963e-08 0 4.30503e-08 0 4.30533e-08 0.0007 4.30563e-08 0 4.34103e-08 0 4.34133e-08 0.0007 4.34163e-08 0 4.37703e-08 0 4.37733e-08 0.0007 4.37763e-08 0 4.41303e-08 0 4.41333e-08 0.0007 4.41363e-08 0 4.44903e-08 0 4.44933e-08 0.0007 4.44963e-08 0 4.48503e-08 0 4.48533e-08 0.0007 4.48563e-08 0 4.52103e-08 0 4.52133e-08 0.0007 4.52163e-08 0 4.55703e-08 0 4.55733e-08 0.0007 4.55763e-08 0 4.59303e-08 0 4.59333e-08 0.0007 4.59363e-08 0)
IB0|B 0 B0  PWL(0 0 4.047e-10 0 4.077e-10 0.0007 4.107e-10 0 5.847e-10 0 5.877e-10 0.0007 5.907e-10 0 1.1247e-09 0 1.1277e-09 0.0007 1.1307e-09 0 1.3047e-09 0 1.3077e-09 0.0007 1.3107e-09 0 1.8447e-09 0 1.8477e-09 0.0007 1.8507e-09 0 2.0247e-09 0 2.0277e-09 0.0007 2.0307e-09 0 2.5647e-09 0 2.5677e-09 0.0007 2.5707e-09 0 2.7447e-09 0 2.7477e-09 0.0007 2.7507e-09 0 3.2847e-09 0 3.2877e-09 0.0007 3.2907e-09 0 3.4647e-09 0 3.4677e-09 0.0007 3.4707e-09 0 4.0047e-09 0 4.0077e-09 0.0007 4.0107e-09 0 4.1847e-09 0 4.1877e-09 0.0007 4.1907e-09 0 4.7247e-09 0 4.7277e-09 0.0007 4.7307e-09 0 4.9047e-09 0 4.9077e-09 0.0007 4.9107e-09 0 5.4447e-09 0 5.4477e-09 0.0007 5.4507e-09 0 5.6247e-09 0 5.6277e-09 0.0007 5.6307e-09 0 6.1647e-09 0 6.1677e-09 0.0007 6.1707e-09 0 6.3447e-09 0 6.3477e-09 0.0007 6.3507e-09 0 6.8847e-09 0 6.8877e-09 0.0007 6.8907e-09 0 7.0647e-09 0 7.0677e-09 0.0007 7.0707e-09 0 7.6047e-09 0 7.6077e-09 0.0007 7.6107e-09 0 7.7847e-09 0 7.7877e-09 0.0007 7.7907e-09 0 8.3247e-09 0 8.3277e-09 0.0007 8.3307e-09 0 8.5047e-09 0 8.5077e-09 0.0007 8.5107e-09 0 9.0447e-09 0 9.0477e-09 0.0007 9.0507e-09 0 9.2247e-09 0 9.2277e-09 0.0007 9.2307e-09 0 9.7647e-09 0 9.7677e-09 0.0007 9.7707e-09 0 9.9447e-09 0 9.9477e-09 0.0007 9.9507e-09 0 1.04847e-08 0 1.04877e-08 0.0007 1.04907e-08 0 1.06647e-08 0 1.06677e-08 0.0007 1.06707e-08 0 1.12047e-08 0 1.12077e-08 0.0007 1.12107e-08 0 1.13847e-08 0 1.13877e-08 0.0007 1.13907e-08 0 1.19247e-08 0 1.19277e-08 0.0007 1.19307e-08 0 1.21047e-08 0 1.21077e-08 0.0007 1.21107e-08 0 1.26447e-08 0 1.26477e-08 0.0007 1.26507e-08 0 1.28247e-08 0 1.28277e-08 0.0007 1.28307e-08 0 1.33647e-08 0 1.33677e-08 0.0007 1.33707e-08 0 1.35447e-08 0 1.35477e-08 0.0007 1.35507e-08 0 1.40847e-08 0 1.40877e-08 0.0007 1.40907e-08 0 1.42647e-08 0 1.42677e-08 0.0007 1.42707e-08 0 1.48047e-08 0 1.48077e-08 0.0007 1.48107e-08 0 1.49847e-08 0 1.49877e-08 0.0007 1.49907e-08 0 1.55247e-08 0 1.55277e-08 0.0007 1.55307e-08 0 1.57047e-08 0 1.57077e-08 0.0007 1.57107e-08 0 1.62447e-08 0 1.62477e-08 0.0007 1.62507e-08 0 1.64247e-08 0 1.64277e-08 0.0007 1.64307e-08 0 1.69647e-08 0 1.69677e-08 0.0007 1.69707e-08 0 1.71447e-08 0 1.71477e-08 0.0007 1.71507e-08 0 1.76847e-08 0 1.76877e-08 0.0007 1.76907e-08 0 1.78647e-08 0 1.78677e-08 0.0007 1.78707e-08 0 1.84047e-08 0 1.84077e-08 0.0007 1.84107e-08 0 1.85847e-08 0 1.85877e-08 0.0007 1.85907e-08 0 1.91247e-08 0 1.91277e-08 0.0007 1.91307e-08 0 1.93047e-08 0 1.93077e-08 0.0007 1.93107e-08 0 1.98447e-08 0 1.98477e-08 0.0007 1.98507e-08 0 2.00247e-08 0 2.00277e-08 0.0007 2.00307e-08 0 2.05647e-08 0 2.05677e-08 0.0007 2.05707e-08 0 2.07447e-08 0 2.07477e-08 0.0007 2.07507e-08 0 2.12847e-08 0 2.12877e-08 0.0007 2.12907e-08 0 2.14647e-08 0 2.14677e-08 0.0007 2.14707e-08 0 2.20047e-08 0 2.20077e-08 0.0007 2.20107e-08 0 2.21847e-08 0 2.21877e-08 0.0007 2.21907e-08 0 2.27247e-08 0 2.27277e-08 0.0007 2.27307e-08 0 2.29047e-08 0 2.29077e-08 0.0007 2.29107e-08 0 2.34447e-08 0 2.34477e-08 0.0007 2.34507e-08 0 2.36247e-08 0 2.36277e-08 0.0007 2.36307e-08 0 2.41647e-08 0 2.41677e-08 0.0007 2.41707e-08 0 2.43447e-08 0 2.43477e-08 0.0007 2.43507e-08 0 2.48847e-08 0 2.48877e-08 0.0007 2.48907e-08 0 2.50647e-08 0 2.50677e-08 0.0007 2.50707e-08 0 2.56047e-08 0 2.56077e-08 0.0007 2.56107e-08 0 2.57847e-08 0 2.57877e-08 0.0007 2.57907e-08 0 2.63247e-08 0 2.63277e-08 0.0007 2.63307e-08 0 2.65047e-08 0 2.65077e-08 0.0007 2.65107e-08 0 2.70447e-08 0 2.70477e-08 0.0007 2.70507e-08 0 2.72247e-08 0 2.72277e-08 0.0007 2.72307e-08 0 2.77647e-08 0 2.77677e-08 0.0007 2.77707e-08 0 2.79447e-08 0 2.79477e-08 0.0007 2.79507e-08 0 2.84847e-08 0 2.84877e-08 0.0007 2.84907e-08 0 2.86647e-08 0 2.86677e-08 0.0007 2.86707e-08 0 2.92047e-08 0 2.92077e-08 0.0007 2.92107e-08 0 2.93847e-08 0 2.93877e-08 0.0007 2.93907e-08 0 2.99247e-08 0 2.99277e-08 0.0007 2.99307e-08 0 3.01047e-08 0 3.01077e-08 0.0007 3.01107e-08 0 3.06447e-08 0 3.06477e-08 0.0007 3.06507e-08 0 3.08247e-08 0 3.08277e-08 0.0007 3.08307e-08 0 3.13647e-08 0 3.13677e-08 0.0007 3.13707e-08 0 3.15447e-08 0 3.15477e-08 0.0007 3.15507e-08 0 3.20847e-08 0 3.20877e-08 0.0007 3.20907e-08 0 3.22647e-08 0 3.22677e-08 0.0007 3.22707e-08 0 3.28047e-08 0 3.28077e-08 0.0007 3.28107e-08 0 3.29847e-08 0 3.29877e-08 0.0007 3.29907e-08 0 3.35247e-08 0 3.35277e-08 0.0007 3.35307e-08 0 3.37047e-08 0 3.37077e-08 0.0007 3.37107e-08 0 3.42447e-08 0 3.42477e-08 0.0007 3.42507e-08 0 3.44247e-08 0 3.44277e-08 0.0007 3.44307e-08 0 3.49647e-08 0 3.49677e-08 0.0007 3.49707e-08 0 3.51447e-08 0 3.51477e-08 0.0007 3.51507e-08 0 3.56847e-08 0 3.56877e-08 0.0007 3.56907e-08 0 3.58647e-08 0 3.58677e-08 0.0007 3.58707e-08 0 3.64047e-08 0 3.64077e-08 0.0007 3.64107e-08 0 3.65847e-08 0 3.65877e-08 0.0007 3.65907e-08 0 3.71247e-08 0 3.71277e-08 0.0007 3.71307e-08 0 3.73047e-08 0 3.73077e-08 0.0007 3.73107e-08 0 3.78447e-08 0 3.78477e-08 0.0007 3.78507e-08 0 3.80247e-08 0 3.80277e-08 0.0007 3.80307e-08 0 3.85647e-08 0 3.85677e-08 0.0007 3.85707e-08 0 3.87447e-08 0 3.87477e-08 0.0007 3.87507e-08 0 3.92847e-08 0 3.92877e-08 0.0007 3.92907e-08 0 3.94647e-08 0 3.94677e-08 0.0007 3.94707e-08 0 4.00047e-08 0 4.00077e-08 0.0007 4.00107e-08 0 4.01847e-08 0 4.01877e-08 0.0007 4.01907e-08 0 4.07247e-08 0 4.07277e-08 0.0007 4.07307e-08 0 4.09047e-08 0 4.09077e-08 0.0007 4.09107e-08 0 4.14447e-08 0 4.14477e-08 0.0007 4.14507e-08 0 4.16247e-08 0 4.16277e-08 0.0007 4.16307e-08 0 4.21647e-08 0 4.21677e-08 0.0007 4.21707e-08 0 4.23447e-08 0 4.23477e-08 0.0007 4.23507e-08 0 4.28847e-08 0 4.28877e-08 0.0007 4.28907e-08 0 4.30647e-08 0 4.30677e-08 0.0007 4.30707e-08 0 4.36047e-08 0 4.36077e-08 0.0007 4.36107e-08 0 4.37847e-08 0 4.37877e-08 0.0007 4.37907e-08 0 4.43247e-08 0 4.43277e-08 0.0007 4.43307e-08 0 4.45047e-08 0 4.45077e-08 0.0007 4.45107e-08 0 4.50447e-08 0 4.50477e-08 0.0007 4.50507e-08 0 4.52247e-08 0 4.52277e-08 0.0007 4.52307e-08 0 4.57647e-08 0 4.57677e-08 0.0007 4.57707e-08 0 4.59447e-08 0 4.59477e-08 0.0007 4.59507e-08 0)
IA1|C 0 A1  PWL(0 0 7.791e-10 0 7.821e-10 0.0007 7.851e-10 0 9.591e-10 0 9.621e-10 0.0007 9.651e-10 0 1.1391e-09 0 1.1421e-09 0.0007 1.1451e-09 0 1.3191e-09 0 1.3221e-09 0.0007 1.3251e-09 0 2.2191e-09 0 2.2221e-09 0.0007 2.2251e-09 0 2.3991e-09 0 2.4021e-09 0.0007 2.4051e-09 0 2.5791e-09 0 2.5821e-09 0.0007 2.5851e-09 0 2.7591e-09 0 2.7621e-09 0.0007 2.7651e-09 0 3.6591e-09 0 3.6621e-09 0.0007 3.6651e-09 0 3.8391e-09 0 3.8421e-09 0.0007 3.8451e-09 0 4.0191e-09 0 4.0221e-09 0.0007 4.0251e-09 0 4.1991e-09 0 4.2021e-09 0.0007 4.2051e-09 0 5.0991e-09 0 5.1021e-09 0.0007 5.1051e-09 0 5.2791e-09 0 5.2821e-09 0.0007 5.2851e-09 0 5.4591e-09 0 5.4621e-09 0.0007 5.4651e-09 0 5.6391e-09 0 5.6421e-09 0.0007 5.6451e-09 0 6.5391e-09 0 6.5421e-09 0.0007 6.5451e-09 0 6.7191e-09 0 6.7221e-09 0.0007 6.7251e-09 0 6.8991e-09 0 6.9021e-09 0.0007 6.9051e-09 0 7.0791e-09 0 7.0821e-09 0.0007 7.0851e-09 0 7.9791e-09 0 7.9821e-09 0.0007 7.9851e-09 0 8.1591e-09 0 8.1621e-09 0.0007 8.1651e-09 0 8.3391e-09 0 8.3421e-09 0.0007 8.3451e-09 0 8.5191e-09 0 8.5221e-09 0.0007 8.5251e-09 0 9.4191e-09 0 9.4221e-09 0.0007 9.4251e-09 0 9.5991e-09 0 9.6021e-09 0.0007 9.6051e-09 0 9.7791e-09 0 9.7821e-09 0.0007 9.7851e-09 0 9.9591e-09 0 9.9621e-09 0.0007 9.9651e-09 0 1.08591e-08 0 1.08621e-08 0.0007 1.08651e-08 0 1.10391e-08 0 1.10421e-08 0.0007 1.10451e-08 0 1.12191e-08 0 1.12221e-08 0.0007 1.12251e-08 0 1.13991e-08 0 1.14021e-08 0.0007 1.14051e-08 0 1.22991e-08 0 1.23021e-08 0.0007 1.23051e-08 0 1.24791e-08 0 1.24821e-08 0.0007 1.24851e-08 0 1.26591e-08 0 1.26621e-08 0.0007 1.26651e-08 0 1.28391e-08 0 1.28421e-08 0.0007 1.28451e-08 0 1.37391e-08 0 1.37421e-08 0.0007 1.37451e-08 0 1.39191e-08 0 1.39221e-08 0.0007 1.39251e-08 0 1.40991e-08 0 1.41021e-08 0.0007 1.41051e-08 0 1.42791e-08 0 1.42821e-08 0.0007 1.42851e-08 0 1.51791e-08 0 1.51821e-08 0.0007 1.51851e-08 0 1.53591e-08 0 1.53621e-08 0.0007 1.53651e-08 0 1.55391e-08 0 1.55421e-08 0.0007 1.55451e-08 0 1.57191e-08 0 1.57221e-08 0.0007 1.57251e-08 0 1.66191e-08 0 1.66221e-08 0.0007 1.66251e-08 0 1.67991e-08 0 1.68021e-08 0.0007 1.68051e-08 0 1.69791e-08 0 1.69821e-08 0.0007 1.69851e-08 0 1.71591e-08 0 1.71621e-08 0.0007 1.71651e-08 0 1.80591e-08 0 1.80621e-08 0.0007 1.80651e-08 0 1.82391e-08 0 1.82421e-08 0.0007 1.82451e-08 0 1.84191e-08 0 1.84221e-08 0.0007 1.84251e-08 0 1.85991e-08 0 1.86021e-08 0.0007 1.86051e-08 0 1.94991e-08 0 1.95021e-08 0.0007 1.95051e-08 0 1.96791e-08 0 1.96821e-08 0.0007 1.96851e-08 0 1.98591e-08 0 1.98621e-08 0.0007 1.98651e-08 0 2.00391e-08 0 2.00421e-08 0.0007 2.00451e-08 0 2.09391e-08 0 2.09421e-08 0.0007 2.09451e-08 0 2.11191e-08 0 2.11221e-08 0.0007 2.11251e-08 0 2.12991e-08 0 2.13021e-08 0.0007 2.13051e-08 0 2.14791e-08 0 2.14821e-08 0.0007 2.14851e-08 0 2.23791e-08 0 2.23821e-08 0.0007 2.23851e-08 0 2.25591e-08 0 2.25621e-08 0.0007 2.25651e-08 0 2.27391e-08 0 2.27421e-08 0.0007 2.27451e-08 0 2.29191e-08 0 2.29221e-08 0.0007 2.29251e-08 0 2.38191e-08 0 2.38221e-08 0.0007 2.38251e-08 0 2.39991e-08 0 2.40021e-08 0.0007 2.40051e-08 0 2.41791e-08 0 2.41821e-08 0.0007 2.41851e-08 0 2.43591e-08 0 2.43621e-08 0.0007 2.43651e-08 0 2.52591e-08 0 2.52621e-08 0.0007 2.52651e-08 0 2.54391e-08 0 2.54421e-08 0.0007 2.54451e-08 0 2.56191e-08 0 2.56221e-08 0.0007 2.56251e-08 0 2.57991e-08 0 2.58021e-08 0.0007 2.58051e-08 0 2.66991e-08 0 2.67021e-08 0.0007 2.67051e-08 0 2.68791e-08 0 2.68821e-08 0.0007 2.68851e-08 0 2.70591e-08 0 2.70621e-08 0.0007 2.70651e-08 0 2.72391e-08 0 2.72421e-08 0.0007 2.72451e-08 0 2.81391e-08 0 2.81421e-08 0.0007 2.81451e-08 0 2.83191e-08 0 2.83221e-08 0.0007 2.83251e-08 0 2.84991e-08 0 2.85021e-08 0.0007 2.85051e-08 0 2.86791e-08 0 2.86821e-08 0.0007 2.86851e-08 0 2.95791e-08 0 2.95821e-08 0.0007 2.95851e-08 0 2.97591e-08 0 2.97621e-08 0.0007 2.97651e-08 0 2.99391e-08 0 2.99421e-08 0.0007 2.99451e-08 0 3.01191e-08 0 3.01221e-08 0.0007 3.01251e-08 0 3.10191e-08 0 3.10221e-08 0.0007 3.10251e-08 0 3.11991e-08 0 3.12021e-08 0.0007 3.12051e-08 0 3.13791e-08 0 3.13821e-08 0.0007 3.13851e-08 0 3.15591e-08 0 3.15621e-08 0.0007 3.15651e-08 0 3.24591e-08 0 3.24621e-08 0.0007 3.24651e-08 0 3.26391e-08 0 3.26421e-08 0.0007 3.26451e-08 0 3.28191e-08 0 3.28221e-08 0.0007 3.28251e-08 0 3.29991e-08 0 3.30021e-08 0.0007 3.30051e-08 0 3.38991e-08 0 3.39021e-08 0.0007 3.39051e-08 0 3.40791e-08 0 3.40821e-08 0.0007 3.40851e-08 0 3.42591e-08 0 3.42621e-08 0.0007 3.42651e-08 0 3.44391e-08 0 3.44421e-08 0.0007 3.44451e-08 0 3.53391e-08 0 3.53421e-08 0.0007 3.53451e-08 0 3.55191e-08 0 3.55221e-08 0.0007 3.55251e-08 0 3.56991e-08 0 3.57021e-08 0.0007 3.57051e-08 0 3.58791e-08 0 3.58821e-08 0.0007 3.58851e-08 0 3.67791e-08 0 3.67821e-08 0.0007 3.67851e-08 0 3.69591e-08 0 3.69621e-08 0.0007 3.69651e-08 0 3.71391e-08 0 3.71421e-08 0.0007 3.71451e-08 0 3.73191e-08 0 3.73221e-08 0.0007 3.73251e-08 0 3.82191e-08 0 3.82221e-08 0.0007 3.82251e-08 0 3.83991e-08 0 3.84021e-08 0.0007 3.84051e-08 0 3.85791e-08 0 3.85821e-08 0.0007 3.85851e-08 0 3.87591e-08 0 3.87621e-08 0.0007 3.87651e-08 0 3.96591e-08 0 3.96621e-08 0.0007 3.96651e-08 0 3.98391e-08 0 3.98421e-08 0.0007 3.98451e-08 0 4.00191e-08 0 4.00221e-08 0.0007 4.00251e-08 0 4.01991e-08 0 4.02021e-08 0.0007 4.02051e-08 0 4.10991e-08 0 4.11021e-08 0.0007 4.11051e-08 0 4.12791e-08 0 4.12821e-08 0.0007 4.12851e-08 0 4.14591e-08 0 4.14621e-08 0.0007 4.14651e-08 0 4.16391e-08 0 4.16421e-08 0.0007 4.16451e-08 0 4.25391e-08 0 4.25421e-08 0.0007 4.25451e-08 0 4.27191e-08 0 4.27221e-08 0.0007 4.27251e-08 0 4.28991e-08 0 4.29021e-08 0.0007 4.29051e-08 0 4.30791e-08 0 4.30821e-08 0.0007 4.30851e-08 0 4.39791e-08 0 4.39821e-08 0.0007 4.39851e-08 0 4.41591e-08 0 4.41621e-08 0.0007 4.41651e-08 0 4.43391e-08 0 4.43421e-08 0.0007 4.43451e-08 0 4.45191e-08 0 4.45221e-08 0.0007 4.45251e-08 0 4.54191e-08 0 4.54221e-08 0.0007 4.54251e-08 0 4.55991e-08 0 4.56021e-08 0.0007 4.56051e-08 0 4.57791e-08 0 4.57821e-08 0.0007 4.57851e-08 0 4.59591e-08 0 4.59621e-08 0.0007 4.59651e-08 0)
IB1|D 0 B1  PWL(0 0 1.5135e-09 0 1.5165e-09 0.0007 1.5195e-09 0 1.6935e-09 0 1.6965e-09 0.0007 1.6995e-09 0 1.8735e-09 0 1.8765e-09 0.0007 1.8795e-09 0 2.0535e-09 0 2.0565e-09 0.0007 2.0595e-09 0 2.2335e-09 0 2.2365e-09 0.0007 2.2395e-09 0 2.4135e-09 0 2.4165e-09 0.0007 2.4195e-09 0 2.5935e-09 0 2.5965e-09 0.0007 2.5995e-09 0 2.7735e-09 0 2.7765e-09 0.0007 2.7795e-09 0 4.3935e-09 0 4.3965e-09 0.0007 4.3995e-09 0 4.5735e-09 0 4.5765e-09 0.0007 4.5795e-09 0 4.7535e-09 0 4.7565e-09 0.0007 4.7595e-09 0 4.9335e-09 0 4.9365e-09 0.0007 4.9395e-09 0 5.1135e-09 0 5.1165e-09 0.0007 5.1195e-09 0 5.2935e-09 0 5.2965e-09 0.0007 5.2995e-09 0 5.4735e-09 0 5.4765e-09 0.0007 5.4795e-09 0 5.6535e-09 0 5.6565e-09 0.0007 5.6595e-09 0 7.2735e-09 0 7.2765e-09 0.0007 7.2795e-09 0 7.4535e-09 0 7.4565e-09 0.0007 7.4595e-09 0 7.6335e-09 0 7.6365e-09 0.0007 7.6395e-09 0 7.8135e-09 0 7.8165e-09 0.0007 7.8195e-09 0 7.9935e-09 0 7.9965e-09 0.0007 7.9995e-09 0 8.1735e-09 0 8.1765e-09 0.0007 8.1795e-09 0 8.3535e-09 0 8.3565e-09 0.0007 8.3595e-09 0 8.5335e-09 0 8.5365e-09 0.0007 8.5395e-09 0 1.01535e-08 0 1.01565e-08 0.0007 1.01595e-08 0 1.03335e-08 0 1.03365e-08 0.0007 1.03395e-08 0 1.05135e-08 0 1.05165e-08 0.0007 1.05195e-08 0 1.06935e-08 0 1.06965e-08 0.0007 1.06995e-08 0 1.08735e-08 0 1.08765e-08 0.0007 1.08795e-08 0 1.10535e-08 0 1.10565e-08 0.0007 1.10595e-08 0 1.12335e-08 0 1.12365e-08 0.0007 1.12395e-08 0 1.14135e-08 0 1.14165e-08 0.0007 1.14195e-08 0 1.30335e-08 0 1.30365e-08 0.0007 1.30395e-08 0 1.32135e-08 0 1.32165e-08 0.0007 1.32195e-08 0 1.33935e-08 0 1.33965e-08 0.0007 1.33995e-08 0 1.35735e-08 0 1.35765e-08 0.0007 1.35795e-08 0 1.37535e-08 0 1.37565e-08 0.0007 1.37595e-08 0 1.39335e-08 0 1.39365e-08 0.0007 1.39395e-08 0 1.41135e-08 0 1.41165e-08 0.0007 1.41195e-08 0 1.42935e-08 0 1.42965e-08 0.0007 1.42995e-08 0 1.59135e-08 0 1.59165e-08 0.0007 1.59195e-08 0 1.60935e-08 0 1.60965e-08 0.0007 1.60995e-08 0 1.62735e-08 0 1.62765e-08 0.0007 1.62795e-08 0 1.64535e-08 0 1.64565e-08 0.0007 1.64595e-08 0 1.66335e-08 0 1.66365e-08 0.0007 1.66395e-08 0 1.68135e-08 0 1.68165e-08 0.0007 1.68195e-08 0 1.69935e-08 0 1.69965e-08 0.0007 1.69995e-08 0 1.71735e-08 0 1.71765e-08 0.0007 1.71795e-08 0 1.87935e-08 0 1.87965e-08 0.0007 1.87995e-08 0 1.89735e-08 0 1.89765e-08 0.0007 1.89795e-08 0 1.91535e-08 0 1.91565e-08 0.0007 1.91595e-08 0 1.93335e-08 0 1.93365e-08 0.0007 1.93395e-08 0 1.95135e-08 0 1.95165e-08 0.0007 1.95195e-08 0 1.96935e-08 0 1.96965e-08 0.0007 1.96995e-08 0 1.98735e-08 0 1.98765e-08 0.0007 1.98795e-08 0 2.00535e-08 0 2.00565e-08 0.0007 2.00595e-08 0 2.16735e-08 0 2.16765e-08 0.0007 2.16795e-08 0 2.18535e-08 0 2.18565e-08 0.0007 2.18595e-08 0 2.20335e-08 0 2.20365e-08 0.0007 2.20395e-08 0 2.22135e-08 0 2.22165e-08 0.0007 2.22195e-08 0 2.23935e-08 0 2.23965e-08 0.0007 2.23995e-08 0 2.25735e-08 0 2.25765e-08 0.0007 2.25795e-08 0 2.27535e-08 0 2.27565e-08 0.0007 2.27595e-08 0 2.29335e-08 0 2.29365e-08 0.0007 2.29395e-08 0 2.45535e-08 0 2.45565e-08 0.0007 2.45595e-08 0 2.47335e-08 0 2.47365e-08 0.0007 2.47395e-08 0 2.49135e-08 0 2.49165e-08 0.0007 2.49195e-08 0 2.50935e-08 0 2.50965e-08 0.0007 2.50995e-08 0 2.52735e-08 0 2.52765e-08 0.0007 2.52795e-08 0 2.54535e-08 0 2.54565e-08 0.0007 2.54595e-08 0 2.56335e-08 0 2.56365e-08 0.0007 2.56395e-08 0 2.58135e-08 0 2.58165e-08 0.0007 2.58195e-08 0 2.74335e-08 0 2.74365e-08 0.0007 2.74395e-08 0 2.76135e-08 0 2.76165e-08 0.0007 2.76195e-08 0 2.77935e-08 0 2.77965e-08 0.0007 2.77995e-08 0 2.79735e-08 0 2.79765e-08 0.0007 2.79795e-08 0 2.81535e-08 0 2.81565e-08 0.0007 2.81595e-08 0 2.83335e-08 0 2.83365e-08 0.0007 2.83395e-08 0 2.85135e-08 0 2.85165e-08 0.0007 2.85195e-08 0 2.86935e-08 0 2.86965e-08 0.0007 2.86995e-08 0 3.03135e-08 0 3.03165e-08 0.0007 3.03195e-08 0 3.04935e-08 0 3.04965e-08 0.0007 3.04995e-08 0 3.06735e-08 0 3.06765e-08 0.0007 3.06795e-08 0 3.08535e-08 0 3.08565e-08 0.0007 3.08595e-08 0 3.10335e-08 0 3.10365e-08 0.0007 3.10395e-08 0 3.12135e-08 0 3.12165e-08 0.0007 3.12195e-08 0 3.13935e-08 0 3.13965e-08 0.0007 3.13995e-08 0 3.15735e-08 0 3.15765e-08 0.0007 3.15795e-08 0 3.31935e-08 0 3.31965e-08 0.0007 3.31995e-08 0 3.33735e-08 0 3.33765e-08 0.0007 3.33795e-08 0 3.35535e-08 0 3.35565e-08 0.0007 3.35595e-08 0 3.37335e-08 0 3.37365e-08 0.0007 3.37395e-08 0 3.39135e-08 0 3.39165e-08 0.0007 3.39195e-08 0 3.40935e-08 0 3.40965e-08 0.0007 3.40995e-08 0 3.42735e-08 0 3.42765e-08 0.0007 3.42795e-08 0 3.44535e-08 0 3.44565e-08 0.0007 3.44595e-08 0 3.60735e-08 0 3.60765e-08 0.0007 3.60795e-08 0 3.62535e-08 0 3.62565e-08 0.0007 3.62595e-08 0 3.64335e-08 0 3.64365e-08 0.0007 3.64395e-08 0 3.66135e-08 0 3.66165e-08 0.0007 3.66195e-08 0 3.67935e-08 0 3.67965e-08 0.0007 3.67995e-08 0 3.69735e-08 0 3.69765e-08 0.0007 3.69795e-08 0 3.71535e-08 0 3.71565e-08 0.0007 3.71595e-08 0 3.73335e-08 0 3.73365e-08 0.0007 3.73395e-08 0 3.89535e-08 0 3.89565e-08 0.0007 3.89595e-08 0 3.91335e-08 0 3.91365e-08 0.0007 3.91395e-08 0 3.93135e-08 0 3.93165e-08 0.0007 3.93195e-08 0 3.94935e-08 0 3.94965e-08 0.0007 3.94995e-08 0 3.96735e-08 0 3.96765e-08 0.0007 3.96795e-08 0 3.98535e-08 0 3.98565e-08 0.0007 3.98595e-08 0 4.00335e-08 0 4.00365e-08 0.0007 4.00395e-08 0 4.02135e-08 0 4.02165e-08 0.0007 4.02195e-08 0 4.18335e-08 0 4.18365e-08 0.0007 4.18395e-08 0 4.20135e-08 0 4.20165e-08 0.0007 4.20195e-08 0 4.21935e-08 0 4.21965e-08 0.0007 4.21995e-08 0 4.23735e-08 0 4.23765e-08 0.0007 4.23795e-08 0 4.25535e-08 0 4.25565e-08 0.0007 4.25595e-08 0 4.27335e-08 0 4.27365e-08 0.0007 4.27395e-08 0 4.29135e-08 0 4.29165e-08 0.0007 4.29195e-08 0 4.30935e-08 0 4.30965e-08 0.0007 4.30995e-08 0 4.47135e-08 0 4.47165e-08 0.0007 4.47195e-08 0 4.48935e-08 0 4.48965e-08 0.0007 4.48995e-08 0 4.50735e-08 0 4.50765e-08 0.0007 4.50795e-08 0 4.52535e-08 0 4.52565e-08 0.0007 4.52595e-08 0 4.54335e-08 0 4.54365e-08 0.0007 4.54395e-08 0 4.56135e-08 0 4.56165e-08 0.0007 4.56195e-08 0 4.57935e-08 0 4.57965e-08 0.0007 4.57995e-08 0 4.59735e-08 0 4.59765e-08 0.0007 4.59795e-08 0)