*
.PARAM PHI0=2.067833848e-15
.PARAM B0=1
.PARAM IC0=0.0001
.PARAM ICRS=0.0006859904418
.PARAM B0RS=6.859904418
.PARAM RSHEET=2
.PARAM LSHEET=1.13e-12
.PARAM LP=2e-13
.PARAM LPTL=2e-12
.PARAM IC=2.5
.PARAM LB=2e-12
.PARAM BIASCOEF=0.7
.PARAM TCLOCK=1e-10
.PARAM GLOBAL_SCALE=1.1
.MODEL JJMIT JJ(RTYPE=1, VG=2.8MV, CAP=0.07PF, R0=160, RN=16, ICRIT=0.1MA)
.MODEL JJMIT JJ(RTYPE=1, VG=2.8MV, CAP=0.07PF, R0=160, RN=16, ICRIT=0.1MA)
.TRAN 0.5E-12 800E-12
ROUT N1001 0  1
IA|A 0 A_IN  PWL(0 0 1.17e-10 0 1.2e-10 0.0007 1.23e-10 0 3.17e-10 0 3.2e-10 0.0007 3.23e-10 0 5.17e-10 0 5.2e-10 0.0007 5.23e-10 0 7.17e-10 0 7.2e-10 0.0007 7.23e-10 0 9.17e-10 0 9.2e-10 0.0007 9.23e-10 0 1.117e-09 0 1.12e-09 0.0007 1.123e-09 0 1.317e-09 0 1.32e-09 0.0007 1.323e-09 0 1.517e-09 0 1.52e-09 0.0007 1.523e-09 0 1.717e-09 0 1.72e-09 0.0007 1.723e-09 0 1.917e-09 0 1.92e-09 0.0007 1.923e-09 0 2.117e-09 0 2.12e-09 0.0007 2.123e-09 0 2.317e-09 0 2.32e-09 0.0007 2.323e-09 0 2.517e-09 0 2.52e-09 0.0007 2.523e-09 0 2.717e-09 0 2.72e-09 0.0007 2.723e-09 0 2.917e-09 0 2.92e-09 0.0007 2.923e-09 0 3.117e-09 0 3.12e-09 0.0007 3.123e-09 0 3.317e-09 0 3.32e-09 0.0007 3.323e-09 0 3.517e-09 0 3.52e-09 0.0007 3.523e-09 0 3.717e-09 0 3.72e-09 0.0007 3.723e-09 0 3.917e-09 0 3.92e-09 0.0007 3.923e-09 0 4.117e-09 0 4.12e-09 0.0007 4.123e-09 0 4.317e-09 0 4.32e-09 0.0007 4.323e-09 0 4.517e-09 0 4.52e-09 0.0007 4.523e-09 0 4.717e-09 0 4.72e-09 0.0007 4.723e-09 0 4.917e-09 0 4.92e-09 0.0007 4.923e-09 0 5.117e-09 0 5.12e-09 0.0007 5.123e-09 0 5.317e-09 0 5.32e-09 0.0007 5.323e-09 0 5.517e-09 0 5.52e-09 0.0007 5.523e-09 0 5.717e-09 0 5.72e-09 0.0007 5.723e-09 0 5.917e-09 0 5.92e-09 0.0007 5.923e-09 0 6.117e-09 0 6.12e-09 0.0007 6.123e-09 0 6.317e-09 0 6.32e-09 0.0007 6.323e-09 0 6.517e-09 0 6.52e-09 0.0007 6.523e-09 0 6.717e-09 0 6.72e-09 0.0007 6.723e-09 0 6.917e-09 0 6.92e-09 0.0007 6.923e-09 0 7.117e-09 0 7.12e-09 0.0007 7.123e-09 0 7.317e-09 0 7.32e-09 0.0007 7.323e-09 0 7.517e-09 0 7.52e-09 0.0007 7.523e-09 0 7.717e-09 0 7.72e-09 0.0007 7.723e-09 0 7.917e-09 0 7.92e-09 0.0007 7.923e-09 0 8.117e-09 0 8.12e-09 0.0007 8.123e-09 0 8.317e-09 0 8.32e-09 0.0007 8.323e-09 0 8.517e-09 0 8.52e-09 0.0007 8.523e-09 0 8.717e-09 0 8.72e-09 0.0007 8.723e-09 0 8.917e-09 0 8.92e-09 0.0007 8.923e-09 0 9.117e-09 0 9.12e-09 0.0007 9.123e-09 0 9.317e-09 0 9.32e-09 0.0007 9.323e-09 0 9.517e-09 0 9.52e-09 0.0007 9.523e-09 0 9.717e-09 0 9.72e-09 0.0007 9.723e-09 0 9.917e-09 0 9.92e-09 0.0007 9.923e-09 0 1.0117e-08 0 1.012e-08 0.0007 1.0123e-08 0 1.0317e-08 0 1.032e-08 0.0007 1.0323e-08 0 1.0517e-08 0 1.052e-08 0.0007 1.0523e-08 0 1.0717e-08 0 1.072e-08 0.0007 1.0723e-08 0 1.0917e-08 0 1.092e-08 0.0007 1.0923e-08 0 1.1117e-08 0 1.112e-08 0.0007 1.1123e-08 0 1.1317e-08 0 1.132e-08 0.0007 1.1323e-08 0 1.1517e-08 0 1.152e-08 0.0007 1.1523e-08 0 1.1717e-08 0 1.172e-08 0.0007 1.1723e-08 0 1.1917e-08 0 1.192e-08 0.0007 1.1923e-08 0 1.2117e-08 0 1.212e-08 0.0007 1.2123e-08 0 1.2317e-08 0 1.232e-08 0.0007 1.2323e-08 0 1.2517e-08 0 1.252e-08 0.0007 1.2523e-08 0 1.2717e-08 0 1.272e-08 0.0007 1.2723e-08 0 1.2917e-08 0 1.292e-08 0.0007 1.2923e-08 0 1.3117e-08 0 1.312e-08 0.0007 1.3123e-08 0 1.3317e-08 0 1.332e-08 0.0007 1.3323e-08 0 1.3517e-08 0 1.352e-08 0.0007 1.3523e-08 0 1.3717e-08 0 1.372e-08 0.0007 1.3723e-08 0 1.3917e-08 0 1.392e-08 0.0007 1.3923e-08 0 1.4117e-08 0 1.412e-08 0.0007 1.4123e-08 0 1.4317e-08 0 1.432e-08 0.0007 1.4323e-08 0 1.4517e-08 0 1.452e-08 0.0007 1.4523e-08 0 1.4717e-08 0 1.472e-08 0.0007 1.4723e-08 0 1.4917e-08 0 1.492e-08 0.0007 1.4923e-08 0 1.5117e-08 0 1.512e-08 0.0007 1.5123e-08 0 1.5317e-08 0 1.532e-08 0.0007 1.5323e-08 0 1.5517e-08 0 1.552e-08 0.0007 1.5523e-08 0 1.5717e-08 0 1.572e-08 0.0007 1.5723e-08 0 1.5917e-08 0 1.592e-08 0.0007 1.5923e-08 0 1.6117e-08 0 1.612e-08 0.0007 1.6123e-08 0 1.6317e-08 0 1.632e-08 0.0007 1.6323e-08 0 1.6517e-08 0 1.652e-08 0.0007 1.6523e-08 0 1.6717e-08 0 1.672e-08 0.0007 1.6723e-08 0 1.6917e-08 0 1.692e-08 0.0007 1.6923e-08 0 1.7117e-08 0 1.712e-08 0.0007 1.7123e-08 0 1.7317e-08 0 1.732e-08 0.0007 1.7323e-08 0 1.7517e-08 0 1.752e-08 0.0007 1.7523e-08 0 1.7717e-08 0 1.772e-08 0.0007 1.7723e-08 0 1.7917e-08 0 1.792e-08 0.0007 1.7923e-08 0 1.8117e-08 0 1.812e-08 0.0007 1.8123e-08 0 1.8317e-08 0 1.832e-08 0.0007 1.8323e-08 0 1.8517e-08 0 1.852e-08 0.0007 1.8523e-08 0 1.8717e-08 0 1.872e-08 0.0007 1.8723e-08 0 1.8917e-08 0 1.892e-08 0.0007 1.8923e-08 0 1.9117e-08 0 1.912e-08 0.0007 1.9123e-08 0 1.9317e-08 0 1.932e-08 0.0007 1.9323e-08 0 1.9517e-08 0 1.952e-08 0.0007 1.9523e-08 0 1.9717e-08 0 1.972e-08 0.0007 1.9723e-08 0 1.9917e-08 0 1.992e-08 0.0007 1.9923e-08 0 2.0117e-08 0 2.012e-08 0.0007 2.0123e-08 0 2.0317e-08 0 2.032e-08 0.0007 2.0323e-08 0 2.0517e-08 0 2.052e-08 0.0007 2.0523e-08 0 2.0717e-08 0 2.072e-08 0.0007 2.0723e-08 0 2.0917e-08 0 2.092e-08 0.0007 2.0923e-08 0 2.1117e-08 0 2.112e-08 0.0007 2.1123e-08 0 2.1317e-08 0 2.132e-08 0.0007 2.1323e-08 0 2.1517e-08 0 2.152e-08 0.0007 2.1523e-08 0 2.1717e-08 0 2.172e-08 0.0007 2.1723e-08 0 2.1917e-08 0 2.192e-08 0.0007 2.1923e-08 0 2.2117e-08 0 2.212e-08 0.0007 2.2123e-08 0 2.2317e-08 0 2.232e-08 0.0007 2.2323e-08 0 2.2517e-08 0 2.252e-08 0.0007 2.2523e-08 0 2.2717e-08 0 2.272e-08 0.0007 2.2723e-08 0 2.2917e-08 0 2.292e-08 0.0007 2.2923e-08 0 2.3117e-08 0 2.312e-08 0.0007 2.3123e-08 0 2.3317e-08 0 2.332e-08 0.0007 2.3323e-08 0 2.3517e-08 0 2.352e-08 0.0007 2.3523e-08 0 2.3717e-08 0 2.372e-08 0.0007 2.3723e-08 0 2.3917e-08 0 2.392e-08 0.0007 2.3923e-08 0 2.4117e-08 0 2.412e-08 0.0007 2.4123e-08 0 2.4317e-08 0 2.432e-08 0.0007 2.4323e-08 0 2.4517e-08 0 2.452e-08 0.0007 2.4523e-08 0 2.4717e-08 0 2.472e-08 0.0007 2.4723e-08 0 2.4917e-08 0 2.492e-08 0.0007 2.4923e-08 0 2.5117e-08 0 2.512e-08 0.0007 2.5123e-08 0 2.5317e-08 0 2.532e-08 0.0007 2.5323e-08 0 2.5517e-08 0 2.552e-08 0.0007 2.5523e-08 0)
IB|B 0 B_IN  PWL(0 0 2.27e-10 0 2.3e-10 0.0007 2.33e-10 0 3.27e-10 0 3.3e-10 0.0007 3.33e-10 0 6.27e-10 0 6.3e-10 0.0007 6.33e-10 0 7.27e-10 0 7.3e-10 0.0007 7.33e-10 0 1.027e-09 0 1.03e-09 0.0007 1.033e-09 0 1.127e-09 0 1.13e-09 0.0007 1.133e-09 0 1.427e-09 0 1.43e-09 0.0007 1.433e-09 0 1.527e-09 0 1.53e-09 0.0007 1.533e-09 0 1.827e-09 0 1.83e-09 0.0007 1.833e-09 0 1.927e-09 0 1.93e-09 0.0007 1.933e-09 0 2.227e-09 0 2.23e-09 0.0007 2.233e-09 0 2.327e-09 0 2.33e-09 0.0007 2.333e-09 0 2.627e-09 0 2.63e-09 0.0007 2.633e-09 0 2.727e-09 0 2.73e-09 0.0007 2.733e-09 0 3.027e-09 0 3.03e-09 0.0007 3.033e-09 0 3.127e-09 0 3.13e-09 0.0007 3.133e-09 0 3.427e-09 0 3.43e-09 0.0007 3.433e-09 0 3.527e-09 0 3.53e-09 0.0007 3.533e-09 0 3.827e-09 0 3.83e-09 0.0007 3.833e-09 0 3.927e-09 0 3.93e-09 0.0007 3.933e-09 0 4.227e-09 0 4.23e-09 0.0007 4.233e-09 0 4.327e-09 0 4.33e-09 0.0007 4.333e-09 0 4.627e-09 0 4.63e-09 0.0007 4.633e-09 0 4.727e-09 0 4.73e-09 0.0007 4.733e-09 0 5.027e-09 0 5.03e-09 0.0007 5.033e-09 0 5.127e-09 0 5.13e-09 0.0007 5.133e-09 0 5.427e-09 0 5.43e-09 0.0007 5.433e-09 0 5.527e-09 0 5.53e-09 0.0007 5.533e-09 0 5.827e-09 0 5.83e-09 0.0007 5.833e-09 0 5.927e-09 0 5.93e-09 0.0007 5.933e-09 0 6.227e-09 0 6.23e-09 0.0007 6.233e-09 0 6.327e-09 0 6.33e-09 0.0007 6.333e-09 0 6.627e-09 0 6.63e-09 0.0007 6.633e-09 0 6.727e-09 0 6.73e-09 0.0007 6.733e-09 0 7.027e-09 0 7.03e-09 0.0007 7.033e-09 0 7.127e-09 0 7.13e-09 0.0007 7.133e-09 0 7.427e-09 0 7.43e-09 0.0007 7.433e-09 0 7.527e-09 0 7.53e-09 0.0007 7.533e-09 0 7.827e-09 0 7.83e-09 0.0007 7.833e-09 0 7.927e-09 0 7.93e-09 0.0007 7.933e-09 0 8.227e-09 0 8.23e-09 0.0007 8.233e-09 0 8.327e-09 0 8.33e-09 0.0007 8.333e-09 0 8.627e-09 0 8.63e-09 0.0007 8.633e-09 0 8.727e-09 0 8.73e-09 0.0007 8.733e-09 0 9.027e-09 0 9.03e-09 0.0007 9.033e-09 0 9.127e-09 0 9.13e-09 0.0007 9.133e-09 0 9.427e-09 0 9.43e-09 0.0007 9.433e-09 0 9.527e-09 0 9.53e-09 0.0007 9.533e-09 0 9.827e-09 0 9.83e-09 0.0007 9.833e-09 0 9.927e-09 0 9.93e-09 0.0007 9.933e-09 0 1.0227e-08 0 1.023e-08 0.0007 1.0233e-08 0 1.0327e-08 0 1.033e-08 0.0007 1.0333e-08 0 1.0627e-08 0 1.063e-08 0.0007 1.0633e-08 0 1.0727e-08 0 1.073e-08 0.0007 1.0733e-08 0 1.1027e-08 0 1.103e-08 0.0007 1.1033e-08 0 1.1127e-08 0 1.113e-08 0.0007 1.1133e-08 0 1.1427e-08 0 1.143e-08 0.0007 1.1433e-08 0 1.1527e-08 0 1.153e-08 0.0007 1.1533e-08 0 1.1827e-08 0 1.183e-08 0.0007 1.1833e-08 0 1.1927e-08 0 1.193e-08 0.0007 1.1933e-08 0 1.2227e-08 0 1.223e-08 0.0007 1.2233e-08 0 1.2327e-08 0 1.233e-08 0.0007 1.2333e-08 0 1.2627e-08 0 1.263e-08 0.0007 1.2633e-08 0 1.2727e-08 0 1.273e-08 0.0007 1.2733e-08 0 1.3027e-08 0 1.303e-08 0.0007 1.3033e-08 0 1.3127e-08 0 1.313e-08 0.0007 1.3133e-08 0 1.3427e-08 0 1.343e-08 0.0007 1.3433e-08 0 1.3527e-08 0 1.353e-08 0.0007 1.3533e-08 0 1.3827e-08 0 1.383e-08 0.0007 1.3833e-08 0 1.3927e-08 0 1.393e-08 0.0007 1.3933e-08 0 1.4227e-08 0 1.423e-08 0.0007 1.4233e-08 0 1.4327e-08 0 1.433e-08 0.0007 1.4333e-08 0 1.4627e-08 0 1.463e-08 0.0007 1.4633e-08 0 1.4727e-08 0 1.473e-08 0.0007 1.4733e-08 0 1.5027e-08 0 1.503e-08 0.0007 1.5033e-08 0 1.5127e-08 0 1.513e-08 0.0007 1.5133e-08 0 1.5427e-08 0 1.543e-08 0.0007 1.5433e-08 0 1.5527e-08 0 1.553e-08 0.0007 1.5533e-08 0 1.5827e-08 0 1.583e-08 0.0007 1.5833e-08 0 1.5927e-08 0 1.593e-08 0.0007 1.5933e-08 0 1.6227e-08 0 1.623e-08 0.0007 1.6233e-08 0 1.6327e-08 0 1.633e-08 0.0007 1.6333e-08 0 1.6627e-08 0 1.663e-08 0.0007 1.6633e-08 0 1.6727e-08 0 1.673e-08 0.0007 1.6733e-08 0 1.7027e-08 0 1.703e-08 0.0007 1.7033e-08 0 1.7127e-08 0 1.713e-08 0.0007 1.7133e-08 0 1.7427e-08 0 1.743e-08 0.0007 1.7433e-08 0 1.7527e-08 0 1.753e-08 0.0007 1.7533e-08 0 1.7827e-08 0 1.783e-08 0.0007 1.7833e-08 0 1.7927e-08 0 1.793e-08 0.0007 1.7933e-08 0 1.8227e-08 0 1.823e-08 0.0007 1.8233e-08 0 1.8327e-08 0 1.833e-08 0.0007 1.8333e-08 0 1.8627e-08 0 1.863e-08 0.0007 1.8633e-08 0 1.8727e-08 0 1.873e-08 0.0007 1.8733e-08 0 1.9027e-08 0 1.903e-08 0.0007 1.9033e-08 0 1.9127e-08 0 1.913e-08 0.0007 1.9133e-08 0 1.9427e-08 0 1.943e-08 0.0007 1.9433e-08 0 1.9527e-08 0 1.953e-08 0.0007 1.9533e-08 0 1.9827e-08 0 1.983e-08 0.0007 1.9833e-08 0 1.9927e-08 0 1.993e-08 0.0007 1.9933e-08 0 2.0227e-08 0 2.023e-08 0.0007 2.0233e-08 0 2.0327e-08 0 2.033e-08 0.0007 2.0333e-08 0 2.0627e-08 0 2.063e-08 0.0007 2.0633e-08 0 2.0727e-08 0 2.073e-08 0.0007 2.0733e-08 0 2.1027e-08 0 2.103e-08 0.0007 2.1033e-08 0 2.1127e-08 0 2.113e-08 0.0007 2.1133e-08 0 2.1427e-08 0 2.143e-08 0.0007 2.1433e-08 0 2.1527e-08 0 2.153e-08 0.0007 2.1533e-08 0 2.1827e-08 0 2.183e-08 0.0007 2.1833e-08 0 2.1927e-08 0 2.193e-08 0.0007 2.1933e-08 0 2.2227e-08 0 2.223e-08 0.0007 2.2233e-08 0 2.2327e-08 0 2.233e-08 0.0007 2.2333e-08 0 2.2627e-08 0 2.263e-08 0.0007 2.2633e-08 0 2.2727e-08 0 2.273e-08 0.0007 2.2733e-08 0 2.3027e-08 0 2.303e-08 0.0007 2.3033e-08 0 2.3127e-08 0 2.313e-08 0.0007 2.3133e-08 0 2.3427e-08 0 2.343e-08 0.0007 2.3433e-08 0 2.3527e-08 0 2.353e-08 0.0007 2.3533e-08 0 2.3827e-08 0 2.383e-08 0.0007 2.3833e-08 0 2.3927e-08 0 2.393e-08 0.0007 2.3933e-08 0 2.4227e-08 0 2.423e-08 0.0007 2.4233e-08 0 2.4327e-08 0 2.433e-08 0.0007 2.4333e-08 0 2.4627e-08 0 2.463e-08 0.0007 2.4633e-08 0 2.4727e-08 0 2.473e-08 0.0007 2.4733e-08 0 2.5027e-08 0 2.503e-08 0.0007 2.5033e-08 0 2.5127e-08 0 2.513e-08 0.0007 2.5133e-08 0 2.5427e-08 0 2.543e-08 0.0007 2.5433e-08 0 2.5527e-08 0 2.553e-08 0.0007 2.5533e-08 0)
IT1|T 0 CLK1  PWL(0 0 9.7e-11 0 1e-10 0.0007 1.03e-10 0 1.97e-10 0 2e-10 0.0007 2.03e-10 0 2.97e-10 0 3e-10 0.0007 3.03e-10 0 3.97e-10 0 4e-10 0.0007 4.03e-10 0 4.97e-10 0 5e-10 0.0007 5.03e-10 0 5.97e-10 0 6e-10 0.0007 6.03e-10 0 6.97e-10 0 7e-10 0.0007 7.03e-10 0 7.97e-10 0 8e-10 0.0007 8.03e-10 0 8.97e-10 0 9e-10 0.0007 9.03e-10 0 9.97e-10 0 1e-09 0.0007 1.003e-09 0 1.097e-09 0 1.1e-09 0.0007 1.103e-09 0 1.197e-09 0 1.2e-09 0.0007 1.203e-09 0 1.297e-09 0 1.3e-09 0.0007 1.303e-09 0 1.397e-09 0 1.4e-09 0.0007 1.403e-09 0 1.497e-09 0 1.5e-09 0.0007 1.503e-09 0 1.597e-09 0 1.6e-09 0.0007 1.603e-09 0 1.697e-09 0 1.7e-09 0.0007 1.703e-09 0 1.797e-09 0 1.8e-09 0.0007 1.803e-09 0 1.897e-09 0 1.9e-09 0.0007 1.903e-09 0 1.997e-09 0 2e-09 0.0007 2.003e-09 0 2.097e-09 0 2.1e-09 0.0007 2.103e-09 0 2.197e-09 0 2.2e-09 0.0007 2.203e-09 0 2.297e-09 0 2.3e-09 0.0007 2.303e-09 0 2.397e-09 0 2.4e-09 0.0007 2.403e-09 0 2.497e-09 0 2.5e-09 0.0007 2.503e-09 0 2.597e-09 0 2.6e-09 0.0007 2.603e-09 0 2.697e-09 0 2.7e-09 0.0007 2.703e-09 0 2.797e-09 0 2.8e-09 0.0007 2.803e-09 0 2.897e-09 0 2.9e-09 0.0007 2.903e-09 0 2.997e-09 0 3e-09 0.0007 3.003e-09 0 3.097e-09 0 3.1e-09 0.0007 3.103e-09 0 3.197e-09 0 3.2e-09 0.0007 3.203e-09 0 3.297e-09 0 3.3e-09 0.0007 3.303e-09 0 3.397e-09 0 3.4e-09 0.0007 3.403e-09 0 3.497e-09 0 3.5e-09 0.0007 3.503e-09 0 3.597e-09 0 3.6e-09 0.0007 3.603e-09 0 3.697e-09 0 3.7e-09 0.0007 3.703e-09 0 3.797e-09 0 3.8e-09 0.0007 3.803e-09 0 3.897e-09 0 3.9e-09 0.0007 3.903e-09 0 3.997e-09 0 4e-09 0.0007 4.003e-09 0 4.097e-09 0 4.1e-09 0.0007 4.103e-09 0 4.197e-09 0 4.2e-09 0.0007 4.203e-09 0 4.297e-09 0 4.3e-09 0.0007 4.303e-09 0 4.397e-09 0 4.4e-09 0.0007 4.403e-09 0 4.497e-09 0 4.5e-09 0.0007 4.503e-09 0 4.597e-09 0 4.6e-09 0.0007 4.603e-09 0 4.697e-09 0 4.7e-09 0.0007 4.703e-09 0 4.797e-09 0 4.8e-09 0.0007 4.803e-09 0 4.897e-09 0 4.9e-09 0.0007 4.903e-09 0 4.997e-09 0 5e-09 0.0007 5.003e-09 0 5.097e-09 0 5.1e-09 0.0007 5.103e-09 0 5.197e-09 0 5.2e-09 0.0007 5.203e-09 0 5.297e-09 0 5.3e-09 0.0007 5.303e-09 0 5.397e-09 0 5.4e-09 0.0007 5.403e-09 0 5.497e-09 0 5.5e-09 0.0007 5.503e-09 0 5.597e-09 0 5.6e-09 0.0007 5.603e-09 0 5.697e-09 0 5.7e-09 0.0007 5.703e-09 0 5.797e-09 0 5.8e-09 0.0007 5.803e-09 0 5.897e-09 0 5.9e-09 0.0007 5.903e-09 0 5.997e-09 0 6e-09 0.0007 6.003e-09 0 6.097e-09 0 6.1e-09 0.0007 6.103e-09 0 6.197e-09 0 6.2e-09 0.0007 6.203e-09 0 6.297e-09 0 6.3e-09 0.0007 6.303e-09 0 6.397e-09 0 6.4e-09 0.0007 6.403e-09 0 6.497e-09 0 6.5e-09 0.0007 6.503e-09 0 6.597e-09 0 6.6e-09 0.0007 6.603e-09 0 6.697e-09 0 6.7e-09 0.0007 6.703e-09 0 6.797e-09 0 6.8e-09 0.0007 6.803e-09 0 6.897e-09 0 6.9e-09 0.0007 6.903e-09 0 6.997e-09 0 7e-09 0.0007 7.003e-09 0 7.097e-09 0 7.1e-09 0.0007 7.103e-09 0 7.197e-09 0 7.2e-09 0.0007 7.203e-09 0 7.297e-09 0 7.3e-09 0.0007 7.303e-09 0 7.397e-09 0 7.4e-09 0.0007 7.403e-09 0 7.497e-09 0 7.5e-09 0.0007 7.503e-09 0 7.597e-09 0 7.6e-09 0.0007 7.603e-09 0 7.697e-09 0 7.7e-09 0.0007 7.703e-09 0 7.797e-09 0 7.8e-09 0.0007 7.803e-09 0 7.897e-09 0 7.9e-09 0.0007 7.903e-09 0 7.997e-09 0 8e-09 0.0007 8.003e-09 0 8.097e-09 0 8.1e-09 0.0007 8.103e-09 0 8.197e-09 0 8.2e-09 0.0007 8.203e-09 0 8.297e-09 0 8.3e-09 0.0007 8.303e-09 0 8.397e-09 0 8.4e-09 0.0007 8.403e-09 0 8.497e-09 0 8.5e-09 0.0007 8.503e-09 0 8.597e-09 0 8.6e-09 0.0007 8.603e-09 0 8.697e-09 0 8.7e-09 0.0007 8.703e-09 0 8.797e-09 0 8.8e-09 0.0007 8.803e-09 0 8.897e-09 0 8.9e-09 0.0007 8.903e-09 0 8.997e-09 0 9e-09 0.0007 9.003e-09 0 9.097e-09 0 9.1e-09 0.0007 9.103e-09 0 9.197e-09 0 9.2e-09 0.0007 9.203e-09 0 9.297e-09 0 9.3e-09 0.0007 9.303e-09 0 9.397e-09 0 9.4e-09 0.0007 9.403e-09 0 9.497e-09 0 9.5e-09 0.0007 9.503e-09 0 9.597e-09 0 9.6e-09 0.0007 9.603e-09 0 9.697e-09 0 9.7e-09 0.0007 9.703e-09 0 9.797e-09 0 9.8e-09 0.0007 9.803e-09 0 9.897e-09 0 9.9e-09 0.0007 9.903e-09 0 9.997e-09 0 1e-08 0.0007 1.0003e-08 0 1.0097e-08 0 1.01e-08 0.0007 1.0103e-08 0 1.0197e-08 0 1.02e-08 0.0007 1.0203e-08 0 1.0297e-08 0 1.03e-08 0.0007 1.0303e-08 0 1.0397e-08 0 1.04e-08 0.0007 1.0403e-08 0 1.0497e-08 0 1.05e-08 0.0007 1.0503e-08 0 1.0597e-08 0 1.06e-08 0.0007 1.0603e-08 0 1.0697e-08 0 1.07e-08 0.0007 1.0703e-08 0 1.0797e-08 0 1.08e-08 0.0007 1.0803e-08 0 1.0897e-08 0 1.09e-08 0.0007 1.0903e-08 0 1.0997e-08 0 1.1e-08 0.0007 1.1003e-08 0 1.1097e-08 0 1.11e-08 0.0007 1.1103e-08 0 1.1197e-08 0 1.12e-08 0.0007 1.1203e-08 0 1.1297e-08 0 1.13e-08 0.0007 1.1303e-08 0 1.1397e-08 0 1.14e-08 0.0007 1.1403e-08 0 1.1497e-08 0 1.15e-08 0.0007 1.1503e-08 0 1.1597e-08 0 1.16e-08 0.0007 1.1603e-08 0 1.1697e-08 0 1.17e-08 0.0007 1.1703e-08 0 1.1797e-08 0 1.18e-08 0.0007 1.1803e-08 0 1.1897e-08 0 1.19e-08 0.0007 1.1903e-08 0 1.1997e-08 0 1.2e-08 0.0007 1.2003e-08 0 1.2097e-08 0 1.21e-08 0.0007 1.2103e-08 0 1.2197e-08 0 1.22e-08 0.0007 1.2203e-08 0 1.2297e-08 0 1.23e-08 0.0007 1.2303e-08 0 1.2397e-08 0 1.24e-08 0.0007 1.2403e-08 0 1.2497e-08 0 1.25e-08 0.0007 1.2503e-08 0 1.2597e-08 0 1.26e-08 0.0007 1.2603e-08 0 1.2697e-08 0 1.27e-08 0.0007 1.2703e-08 0 1.2797e-08 0 1.28e-08 0.0007 1.2803e-08 0 1.2897e-08 0 1.29e-08 0.0007 1.2903e-08 0 1.2997e-08 0 1.3e-08 0.0007 1.3003e-08 0 1.3097e-08 0 1.31e-08 0.0007 1.3103e-08 0 1.3197e-08 0 1.32e-08 0.0007 1.3203e-08 0 1.3297e-08 0 1.33e-08 0.0007 1.3303e-08 0 1.3397e-08 0 1.34e-08 0.0007 1.3403e-08 0 1.3497e-08 0 1.35e-08 0.0007 1.3503e-08 0 1.3597e-08 0 1.36e-08 0.0007 1.3603e-08 0 1.3697e-08 0 1.37e-08 0.0007 1.3703e-08 0 1.3797e-08 0 1.38e-08 0.0007 1.3803e-08 0 1.3897e-08 0 1.39e-08 0.0007 1.3903e-08 0 1.3997e-08 0 1.4e-08 0.0007 1.4003e-08 0 1.4097e-08 0 1.41e-08 0.0007 1.4103e-08 0 1.4197e-08 0 1.42e-08 0.0007 1.4203e-08 0 1.4297e-08 0 1.43e-08 0.0007 1.4303e-08 0 1.4397e-08 0 1.44e-08 0.0007 1.4403e-08 0 1.4497e-08 0 1.45e-08 0.0007 1.4503e-08 0 1.4597e-08 0 1.46e-08 0.0007 1.4603e-08 0 1.4697e-08 0 1.47e-08 0.0007 1.4703e-08 0 1.4797e-08 0 1.48e-08 0.0007 1.4803e-08 0 1.4897e-08 0 1.49e-08 0.0007 1.4903e-08 0 1.4997e-08 0 1.5e-08 0.0007 1.5003e-08 0 1.5097e-08 0 1.51e-08 0.0007 1.5103e-08 0 1.5197e-08 0 1.52e-08 0.0007 1.5203e-08 0 1.5297e-08 0 1.53e-08 0.0007 1.5303e-08 0 1.5397e-08 0 1.54e-08 0.0007 1.5403e-08 0 1.5497e-08 0 1.55e-08 0.0007 1.5503e-08 0 1.5597e-08 0 1.56e-08 0.0007 1.5603e-08 0 1.5697e-08 0 1.57e-08 0.0007 1.5703e-08 0 1.5797e-08 0 1.58e-08 0.0007 1.5803e-08 0 1.5897e-08 0 1.59e-08 0.0007 1.5903e-08 0 1.5997e-08 0 1.6e-08 0.0007 1.6003e-08 0 1.6097e-08 0 1.61e-08 0.0007 1.6103e-08 0 1.6197e-08 0 1.62e-08 0.0007 1.6203e-08 0 1.6297e-08 0 1.63e-08 0.0007 1.6303e-08 0 1.6397e-08 0 1.64e-08 0.0007 1.6403e-08 0 1.6497e-08 0 1.65e-08 0.0007 1.6503e-08 0 1.6597e-08 0 1.66e-08 0.0007 1.6603e-08 0 1.6697e-08 0 1.67e-08 0.0007 1.6703e-08 0 1.6797e-08 0 1.68e-08 0.0007 1.6803e-08 0 1.6897e-08 0 1.69e-08 0.0007 1.6903e-08 0 1.6997e-08 0 1.7e-08 0.0007 1.7003e-08 0 1.7097e-08 0 1.71e-08 0.0007 1.7103e-08 0 1.7197e-08 0 1.72e-08 0.0007 1.7203e-08 0 1.7297e-08 0 1.73e-08 0.0007 1.7303e-08 0 1.7397e-08 0 1.74e-08 0.0007 1.7403e-08 0 1.7497e-08 0 1.75e-08 0.0007 1.7503e-08 0 1.7597e-08 0 1.76e-08 0.0007 1.7603e-08 0 1.7697e-08 0 1.77e-08 0.0007 1.7703e-08 0 1.7797e-08 0 1.78e-08 0.0007 1.7803e-08 0 1.7897e-08 0 1.79e-08 0.0007 1.7903e-08 0 1.7997e-08 0 1.8e-08 0.0007 1.8003e-08 0 1.8097e-08 0 1.81e-08 0.0007 1.8103e-08 0 1.8197e-08 0 1.82e-08 0.0007 1.8203e-08 0 1.8297e-08 0 1.83e-08 0.0007 1.8303e-08 0 1.8397e-08 0 1.84e-08 0.0007 1.8403e-08 0 1.8497e-08 0 1.85e-08 0.0007 1.8503e-08 0 1.8597e-08 0 1.86e-08 0.0007 1.8603e-08 0 1.8697e-08 0 1.87e-08 0.0007 1.8703e-08 0 1.8797e-08 0 1.88e-08 0.0007 1.8803e-08 0 1.8897e-08 0 1.89e-08 0.0007 1.8903e-08 0 1.8997e-08 0 1.9e-08 0.0007 1.9003e-08 0 1.9097e-08 0 1.91e-08 0.0007 1.9103e-08 0 1.9197e-08 0 1.92e-08 0.0007 1.9203e-08 0 1.9297e-08 0 1.93e-08 0.0007 1.9303e-08 0 1.9397e-08 0 1.94e-08 0.0007 1.9403e-08 0 1.9497e-08 0 1.95e-08 0.0007 1.9503e-08 0 1.9597e-08 0 1.96e-08 0.0007 1.9603e-08 0 1.9697e-08 0 1.97e-08 0.0007 1.9703e-08 0 1.9797e-08 0 1.98e-08 0.0007 1.9803e-08 0 1.9897e-08 0 1.99e-08 0.0007 1.9903e-08 0 1.9997e-08 0 2e-08 0.0007 2.0003e-08 0 2.0097e-08 0 2.01e-08 0.0007 2.0103e-08 0 2.0197e-08 0 2.02e-08 0.0007 2.0203e-08 0 2.0297e-08 0 2.03e-08 0.0007 2.0303e-08 0 2.0397e-08 0 2.04e-08 0.0007 2.0403e-08 0 2.0497e-08 0 2.05e-08 0.0007 2.0503e-08 0 2.0597e-08 0 2.06e-08 0.0007 2.0603e-08 0 2.0697e-08 0 2.07e-08 0.0007 2.0703e-08 0 2.0797e-08 0 2.08e-08 0.0007 2.0803e-08 0 2.0897e-08 0 2.09e-08 0.0007 2.0903e-08 0 2.0997e-08 0 2.1e-08 0.0007 2.1003e-08 0 2.1097e-08 0 2.11e-08 0.0007 2.1103e-08 0 2.1197e-08 0 2.12e-08 0.0007 2.1203e-08 0 2.1297e-08 0 2.13e-08 0.0007 2.1303e-08 0 2.1397e-08 0 2.14e-08 0.0007 2.1403e-08 0 2.1497e-08 0 2.15e-08 0.0007 2.1503e-08 0 2.1597e-08 0 2.16e-08 0.0007 2.1603e-08 0 2.1697e-08 0 2.17e-08 0.0007 2.1703e-08 0 2.1797e-08 0 2.18e-08 0.0007 2.1803e-08 0 2.1897e-08 0 2.19e-08 0.0007 2.1903e-08 0 2.1997e-08 0 2.2e-08 0.0007 2.2003e-08 0 2.2097e-08 0 2.21e-08 0.0007 2.2103e-08 0 2.2197e-08 0 2.22e-08 0.0007 2.2203e-08 0 2.2297e-08 0 2.23e-08 0.0007 2.2303e-08 0 2.2397e-08 0 2.24e-08 0.0007 2.2403e-08 0 2.2497e-08 0 2.25e-08 0.0007 2.2503e-08 0 2.2597e-08 0 2.26e-08 0.0007 2.2603e-08 0 2.2697e-08 0 2.27e-08 0.0007 2.2703e-08 0 2.2797e-08 0 2.28e-08 0.0007 2.2803e-08 0 2.2897e-08 0 2.29e-08 0.0007 2.2903e-08 0 2.2997e-08 0 2.3e-08 0.0007 2.3003e-08 0 2.3097e-08 0 2.31e-08 0.0007 2.3103e-08 0 2.3197e-08 0 2.32e-08 0.0007 2.3203e-08 0 2.3297e-08 0 2.33e-08 0.0007 2.3303e-08 0 2.3397e-08 0 2.34e-08 0.0007 2.3403e-08 0 2.3497e-08 0 2.35e-08 0.0007 2.3503e-08 0 2.3597e-08 0 2.36e-08 0.0007 2.3603e-08 0 2.3697e-08 0 2.37e-08 0.0007 2.3703e-08 0 2.3797e-08 0 2.38e-08 0.0007 2.3803e-08 0 2.3897e-08 0 2.39e-08 0.0007 2.3903e-08 0 2.3997e-08 0 2.4e-08 0.0007 2.4003e-08 0 2.4097e-08 0 2.41e-08 0.0007 2.4103e-08 0 2.4197e-08 0 2.42e-08 0.0007 2.4203e-08 0 2.4297e-08 0 2.43e-08 0.0007 2.4303e-08 0 2.4397e-08 0 2.44e-08 0.0007 2.4403e-08 0 2.4497e-08 0 2.45e-08 0.0007 2.4503e-08 0 2.4597e-08 0 2.46e-08 0.0007 2.4603e-08 0 2.4697e-08 0 2.47e-08 0.0007 2.4703e-08 0 2.4797e-08 0 2.48e-08 0.0007 2.4803e-08 0 2.4897e-08 0 2.49e-08 0.0007 2.4903e-08 0 2.4997e-08 0 2.5e-08 0.0007 2.5003e-08 0 2.5097e-08 0 2.51e-08 0.0007 2.5103e-08 0 2.5197e-08 0 2.52e-08 0.0007 2.5203e-08 0 2.5297e-08 0 2.53e-08 0.0007 2.5303e-08 0 2.5397e-08 0 2.54e-08 0.0007 2.5403e-08 0 2.5497e-08 0 2.55e-08 0.0007 2.5503e-08 0 2.5597e-08 0 2.56e-08 0.0007 2.5603e-08 0 2.5697e-08 0 2.57e-08 0.0007 2.5703e-08 0 2.5797e-08 0 2.58e-08 0.0007 2.5803e-08 0 2.5897e-08 0 2.59e-08 0.0007 2.5903e-08 0 2.5997e-08 0 2.6e-08 0.0007 2.6003e-08 0 2.6097e-08 0 2.61e-08 0.0007 2.6103e-08 0 2.6197e-08 0 2.62e-08 0.0007 2.6203e-08 0 2.6297e-08 0 2.63e-08 0.0007 2.6303e-08 0 2.6397e-08 0 2.64e-08 0.0007 2.6403e-08 0 2.6497e-08 0 2.65e-08 0.0007 2.6503e-08 0 2.6597e-08 0 2.66e-08 0.0007 2.6603e-08 0 2.6697e-08 0 2.67e-08 0.0007 2.6703e-08 0 2.6797e-08 0 2.68e-08 0.0007 2.6803e-08 0 2.6897e-08 0 2.69e-08 0.0007 2.6903e-08 0 2.6997e-08 0 2.7e-08 0.0007 2.7003e-08 0 2.7097e-08 0 2.71e-08 0.0007 2.7103e-08 0 2.7197e-08 0 2.72e-08 0.0007 2.7203e-08 0 2.7297e-08 0 2.73e-08 0.0007 2.7303e-08 0 2.7397e-08 0 2.74e-08 0.0007 2.7403e-08 0 2.7497e-08 0 2.75e-08 0.0007 2.7503e-08 0 2.7597e-08 0 2.76e-08 0.0007 2.7603e-08 0 2.7697e-08 0 2.77e-08 0.0007 2.7703e-08 0 2.7797e-08 0 2.78e-08 0.0007 2.7803e-08 0 2.7897e-08 0 2.79e-08 0.0007 2.7903e-08 0 2.7997e-08 0 2.8e-08 0.0007 2.8003e-08 0 2.8097e-08 0 2.81e-08 0.0007 2.8103e-08 0 2.8197e-08 0 2.82e-08 0.0007 2.8203e-08 0 2.8297e-08 0 2.83e-08 0.0007 2.8303e-08 0 2.8397e-08 0 2.84e-08 0.0007 2.8403e-08 0 2.8497e-08 0 2.85e-08 0.0007 2.8503e-08 0 2.8597e-08 0 2.86e-08 0.0007 2.8603e-08 0 2.8697e-08 0 2.87e-08 0.0007 2.8703e-08 0 2.8797e-08 0 2.88e-08 0.0007 2.8803e-08 0 2.8897e-08 0 2.89e-08 0.0007 2.8903e-08 0 2.8997e-08 0 2.9e-08 0.0007 2.9003e-08 0 2.9097e-08 0 2.91e-08 0.0007 2.9103e-08 0 2.9197e-08 0 2.92e-08 0.0007 2.9203e-08 0 2.9297e-08 0 2.93e-08 0.0007 2.9303e-08 0 2.9397e-08 0 2.94e-08 0.0007 2.9403e-08 0 2.9497e-08 0 2.95e-08 0.0007 2.9503e-08 0 2.9597e-08 0 2.96e-08 0.0007 2.9603e-08 0 2.9697e-08 0 2.97e-08 0.0007 2.9703e-08 0 2.9797e-08 0 2.98e-08 0.0007 2.9803e-08 0 2.9897e-08 0 2.99e-08 0.0007 2.9903e-08 0 2.9997e-08 0 3e-08 0.0007 3.0003e-08 0 3.0097e-08 0 3.01e-08 0.0007 3.0103e-08 0 3.0197e-08 0 3.02e-08 0.0007 3.0203e-08 0 3.0297e-08 0 3.03e-08 0.0007 3.0303e-08 0 3.0397e-08 0 3.04e-08 0.0007 3.0403e-08 0 3.0497e-08 0 3.05e-08 0.0007 3.0503e-08 0 3.0597e-08 0 3.06e-08 0.0007 3.0603e-08 0 3.0697e-08 0 3.07e-08 0.0007 3.0703e-08 0 3.0797e-08 0 3.08e-08 0.0007 3.0803e-08 0 3.0897e-08 0 3.09e-08 0.0007 3.0903e-08 0 3.0997e-08 0 3.1e-08 0.0007 3.1003e-08 0 3.1097e-08 0 3.11e-08 0.0007 3.1103e-08 0 3.1197e-08 0 3.12e-08 0.0007 3.1203e-08 0 3.1297e-08 0 3.13e-08 0.0007 3.1303e-08 0 3.1397e-08 0 3.14e-08 0.0007 3.1403e-08 0 3.1497e-08 0 3.15e-08 0.0007 3.1503e-08 0 3.1597e-08 0 3.16e-08 0.0007 3.1603e-08 0 3.1697e-08 0 3.17e-08 0.0007 3.1703e-08 0 3.1797e-08 0 3.18e-08 0.0007 3.1803e-08 0 3.1897e-08 0 3.19e-08 0.0007 3.1903e-08 0 3.1997e-08 0 3.2e-08 0.0007 3.2003e-08 0 3.2097e-08 0 3.21e-08 0.0007 3.2103e-08 0 3.2197e-08 0 3.22e-08 0.0007 3.2203e-08 0 3.2297e-08 0 3.23e-08 0.0007 3.2303e-08 0 3.2397e-08 0 3.24e-08 0.0007 3.2403e-08 0 3.2497e-08 0 3.25e-08 0.0007 3.2503e-08 0 3.2597e-08 0 3.26e-08 0.0007 3.2603e-08 0 3.2697e-08 0 3.27e-08 0.0007 3.2703e-08 0 3.2797e-08 0 3.28e-08 0.0007 3.2803e-08 0 3.2897e-08 0 3.29e-08 0.0007 3.2903e-08 0 3.2997e-08 0 3.3e-08 0.0007 3.3003e-08 0 3.3097e-08 0 3.31e-08 0.0007 3.3103e-08 0 3.3197e-08 0 3.32e-08 0.0007 3.3203e-08 0 3.3297e-08 0 3.33e-08 0.0007 3.3303e-08 0 3.3397e-08 0 3.34e-08 0.0007 3.3403e-08 0 3.3497e-08 0 3.35e-08 0.0007 3.3503e-08 0 3.3597e-08 0 3.36e-08 0.0007 3.3603e-08 0 3.3697e-08 0 3.37e-08 0.0007 3.3703e-08 0 3.3797e-08 0 3.38e-08 0.0007 3.3803e-08 0 3.3897e-08 0 3.39e-08 0.0007 3.3903e-08 0 3.3997e-08 0 3.4e-08 0.0007 3.4003e-08 0 3.4097e-08 0 3.41e-08 0.0007 3.4103e-08 0 3.4197e-08 0 3.42e-08 0.0007 3.4203e-08 0 3.4297e-08 0 3.43e-08 0.0007 3.4303e-08 0 3.4397e-08 0 3.44e-08 0.0007 3.4403e-08 0 3.4497e-08 0 3.45e-08 0.0007 3.4503e-08 0 3.4597e-08 0 3.46e-08 0.0007 3.4603e-08 0 3.4697e-08 0 3.47e-08 0.0007 3.4703e-08 0 3.4797e-08 0 3.48e-08 0.0007 3.4803e-08 0 3.4897e-08 0 3.49e-08 0.0007 3.4903e-08 0 3.4997e-08 0 3.5e-08 0.0007 3.5003e-08 0 3.5097e-08 0 3.51e-08 0.0007 3.5103e-08 0 3.5197e-08 0 3.52e-08 0.0007 3.5203e-08 0 3.5297e-08 0 3.53e-08 0.0007 3.5303e-08 0 3.5397e-08 0 3.54e-08 0.0007 3.5403e-08 0 3.5497e-08 0 3.55e-08 0.0007 3.5503e-08 0 3.5597e-08 0 3.56e-08 0.0007 3.5603e-08 0 3.5697e-08 0 3.57e-08 0.0007 3.5703e-08 0 3.5797e-08 0 3.58e-08 0.0007 3.5803e-08 0 3.5897e-08 0 3.59e-08 0.0007 3.5903e-08 0 3.5997e-08 0 3.6e-08 0.0007 3.6003e-08 0 3.6097e-08 0 3.61e-08 0.0007 3.6103e-08 0 3.6197e-08 0 3.62e-08 0.0007 3.6203e-08 0 3.6297e-08 0 3.63e-08 0.0007 3.6303e-08 0 3.6397e-08 0 3.64e-08 0.0007 3.6403e-08 0 3.6497e-08 0 3.65e-08 0.0007 3.6503e-08 0 3.6597e-08 0 3.66e-08 0.0007 3.6603e-08 0 3.6697e-08 0 3.67e-08 0.0007 3.6703e-08 0 3.6797e-08 0 3.68e-08 0.0007 3.6803e-08 0 3.6897e-08 0 3.69e-08 0.0007 3.6903e-08 0 3.6997e-08 0 3.7e-08 0.0007 3.7003e-08 0 3.7097e-08 0 3.71e-08 0.0007 3.7103e-08 0 3.7197e-08 0 3.72e-08 0.0007 3.7203e-08 0 3.7297e-08 0 3.73e-08 0.0007 3.7303e-08 0 3.7397e-08 0 3.74e-08 0.0007 3.7403e-08 0 3.7497e-08 0 3.75e-08 0.0007 3.7503e-08 0 3.7597e-08 0 3.76e-08 0.0007 3.7603e-08 0 3.7697e-08 0 3.77e-08 0.0007 3.7703e-08 0 3.7797e-08 0 3.78e-08 0.0007 3.7803e-08 0 3.7897e-08 0 3.79e-08 0.0007 3.7903e-08 0 3.7997e-08 0 3.8e-08 0.0007 3.8003e-08 0 3.8097e-08 0 3.81e-08 0.0007 3.8103e-08 0 3.8197e-08 0 3.82e-08 0.0007 3.8203e-08 0 3.8297e-08 0 3.83e-08 0.0007 3.8303e-08 0 3.8397e-08 0 3.84e-08 0.0007 3.8403e-08 0 3.8497e-08 0 3.85e-08 0.0007 3.8503e-08 0 3.8597e-08 0 3.86e-08 0.0007 3.8603e-08 0 3.8697e-08 0 3.87e-08 0.0007 3.8703e-08 0 3.8797e-08 0 3.88e-08 0.0007 3.8803e-08 0 3.8897e-08 0 3.89e-08 0.0007 3.8903e-08 0 3.8997e-08 0 3.9e-08 0.0007 3.9003e-08 0 3.9097e-08 0 3.91e-08 0.0007 3.9103e-08 0 3.9197e-08 0 3.92e-08 0.0007 3.9203e-08 0 3.9297e-08 0 3.93e-08 0.0007 3.9303e-08 0 3.9397e-08 0 3.94e-08 0.0007 3.9403e-08 0 3.9497e-08 0 3.95e-08 0.0007 3.9503e-08 0 3.9597e-08 0 3.96e-08 0.0007 3.9603e-08 0 3.9697e-08 0 3.97e-08 0.0007 3.9703e-08 0 3.9797e-08 0 3.98e-08 0.0007 3.9803e-08 0 3.9897e-08 0 3.99e-08 0.0007 3.9903e-08 0)